{"SIM_UUID":"b7b34a62-4ffd-43f6-94aa-b713e28753ab","SOLUTION_FILE_FULL":"D:\\Users\\User\\Documents\\GMS\\PhD\\Current\\BaseModel_models\\MODFLOW 6\\sim\\flow_output\\flow.cbc","SOLUTION_FILE_RELATIVE":"../../../BaseModel_models/MODFLOW 6/sim/flow_output/flow.cbc"}