BEGIN OPTIONS
END OPTIONS

BEGIN GRIDDATA
  STRT LAYERED
    OPEN/CLOSE ../9ea819fe-f2a4-4e21-ba90-5610549c137f/model.ic_STRT_1.txt FACTOR 1.0
    OPEN/CLOSE ../9ea819fe-f2a4-4e21-ba90-5610549c137f/model.ic_STRT_2.txt FACTOR 1.0
END GRIDDATA
