# File generated by Flopy version 3.3.6 on 07/14/2023 at 11:25:15.
BEGIN options
END options

BEGIN timing
  TDIS6  test.tdis
END timing

BEGIN models
  gwf6  test_model.nam  test_model
END models

BEGIN exchanges
END exchanges

BEGIN solutiongroup  1
  ims6  test.ims  test_model
END solutiongroup  1

