# File generated by Flopy version 3.3.6 on 07/14/2023 at 11:25:16.
BEGIN options
END options

BEGIN dimensions
  MAXBOUND  62
END dimensions

BEGIN period  1
  1 23 250      10.00000000
  1 24 250      10.00000000
  1 25 250      10.00000000
  1 26 250      10.00000000
  1 27 250      10.00000000
  1 28 250      10.00000000
  1 29 250      10.00000000
  1 30 250      10.00000000
  1 31 250      10.00000000
  1 32 250      10.00000000
  1 33 250      10.00000000
  1 34 250      10.00000000
  1 35 250      10.00000000
  1 36 250      10.00000000
  1 37 250      10.00000000
  1 38 250      10.00000000
  1 39 250      10.00000000
  1 40 250      10.00000000
  1 41 250      10.00000000
  1 42 250      10.00000000
  1 43 250      10.00000000
  1 44 250      10.00000000
  1 45 250      10.00000000
  1 46 250      10.00000000
  1 47 250      10.00000000
  1 48 250      10.00000000
  1 49 250      10.00000000
  1 50 250      10.00000000
  1 51 250      10.00000000
  1 52 250      10.00000000
  1 53 250      10.00000000
  2 23 250      10.00000000
  2 24 250      10.00000000
  2 25 250      10.00000000
  2 26 250      10.00000000
  2 27 250      10.00000000
  2 28 250      10.00000000
  2 29 250      10.00000000
  2 30 250      10.00000000
  2 31 250      10.00000000
  2 32 250      10.00000000
  2 33 250      10.00000000
  2 34 250      10.00000000
  2 35 250      10.00000000
  2 36 250      10.00000000
  2 37 250      10.00000000
  2 38 250      10.00000000
  2 39 250      10.00000000
  2 40 250      10.00000000
  2 41 250      10.00000000
  2 42 250      10.00000000
  2 43 250      10.00000000
  2 44 250      10.00000000
  2 45 250      10.00000000
  2 46 250      10.00000000
  2 47 250      10.00000000
  2 48 250      10.00000000
  2 49 250      10.00000000
  2 50 250      10.00000000
  2 51 250      10.00000000
  2 52 250      10.00000000
  2 53 250      10.00000000
END period  1

