# File generated by Flopy version 3.3.6 on 07/14/2023 at 11:25:15.
BEGIN options
END options

BEGIN packages
  dis6  test_model.dis  dis
  npf6  test_model.npf  npf
  ic6  test_model.ic  ic
  sto6  test_model.sto  sto
  chd6  test_model.chd  chd
  evt6  test_model.evt  evta
  oc6  test_model.oc  oc
  rch6  test_model.rch  rch
  riv6  test_model.riv  riv
  wel6  test_model.wel  wel
END packages

