# File generated by Flopy version 3.3.6 on 07/14/2023 at 11:25:16.
BEGIN options
END options

BEGIN dimensions
  MAXBOUND  344
END dimensions

BEGIN period  1
  1 47 1      13.99428186     395.00000000      12.99428186
  1 47 2      13.98132556     500.00000000      12.98132556
  1 47 3      13.96684925     500.00000000      12.96684925
  1 47 4      13.95237294     500.00000000      12.95237294
  1 47 5      13.93789663     500.00000000      12.93789663
  1 47 6      13.92342033     500.00000000      12.92342033
  1 47 7      13.90894402     500.00000000      12.90894402
  1 47 8      13.89446532     500.16478288      12.89446532
  1 47 9      13.87998370     500.20218758      12.87998370
  1 47 10      13.86550154     500.20218758      12.86550154
  1 47 11      13.85101937     500.20218758      12.85101937
  1 47 12      13.83637400     511.47670501      12.83637400
  1 47 13      13.82244632     450.62456657      12.82244632
  1 46 13      13.81481664      76.42171012      12.81481664
  1 46 14      13.80608065     527.04627669      12.80608065
  1 46 15      13.79086108     524.29676921      12.79086108
  1 46 16      13.77576787     518.31768151      12.77576787
  1 46 17      13.76741841      58.44977288      12.76741841
  1 45 17      13.75991508     459.86790863      12.75991508
  1 45 18      13.74575457     518.31768151      12.74575457
  1 45 19      13.73073736     519.04635699      12.73073736
  1 45 20      13.71890071     298.61043676      12.71890071
  1 44 20      13.71118641     234.28075430      12.71118641
  1 44 21      13.70008060     532.89119107      12.70008060
  1 44 22      13.68442697     548.43604403      12.68442697
  1 44 23      13.67612348      25.15576475      12.67612348
  1 43 23      13.66803097     533.86122963      12.66803097
  1 43 24      13.65221013     559.01699437      12.65221013
  1 43 25      13.64375346      25.15576475      12.64375346
  1 42 25      13.63596227     513.04732937      12.63596227
  1 42 26      13.62105144     516.96871103      12.62105144
  1 42 27      13.60609337     516.31083130      12.60609337
  1 42 28      13.59137338     500.52171780      12.59137338
  1 42 29      13.57688197     500.52171780      12.57688197
  1 42 30      13.56459632     348.15135640      12.56459632
  1 41 30      13.55731614     154.75154481      12.55731614
  1 41 31      13.54765343     512.73291479      12.54765343
  1 41 32      13.53280847     512.73291479      12.53280847
  1 41 33      13.51786947     519.22860969      12.51786947
  1 41 34      13.50556082     331.03302355      12.50556082
  1 40 34      13.49787346     199.99762337      12.49787346
  1 40 35      13.48729087     531.03064692      12.48729087
  1 40 36      13.47191614     531.03064692      12.47191614
  1 40 37      13.46080182     236.72873525      12.46080182
  1 39 37      13.45321195     287.56695571      12.45321195
  1 39 38      13.44149433     521.86744153      12.44149433
  1 39 39      13.42638490     521.86744153      12.42638490
  1 39 40      13.41283331     414.25477600      12.41283331
  1 38 40      13.40527859     107.61266553      12.40527859
  1 38 41      13.39642647     503.87744982      12.39642647
  1 38 42      13.38188207     500.82651556      12.38188207
  1 38 43      13.36738183     500.82651556      12.36738183
  1 38 44      13.35288159     500.82651556      12.35288159
  1 38 45      13.33837314     501.39366259      12.33837314
  1 38 46      13.32384018     502.51949178      12.32384018
  1 38 47      13.30929093     502.51949178      12.30929093
  1 38 48      13.29474167     502.51949178      12.29474167
  1 38 49      13.28011554     507.83011038      12.28011554
  1 38 50      13.26855024     291.08196888      12.26855024
  1 37 50      13.26110665     223.10921212      12.26110665
  1 37 51      13.25043326     514.19118100      12.25043326
  1 37 52      13.23532100     529.73947303      12.23532100
  1 37 53      13.22294632     325.08330811      12.22294632
  1 36 53      13.21450237     258.21139302      12.21450237
  1 36 54      13.20249402     571.30600135      12.20249402
  1 36 55      13.19149676     188.36642441      12.19149676
  1 35 55      13.18323843     382.10613792      12.18323843
  1 35 56      13.16927882     582.20067023      12.16927882
  1 34 56      13.16057558      19.00524226      12.16057558
  1 34 57      13.15077096     658.28213425      12.15077096
  1 34 58      13.13991809      91.41627703      12.13991809
  1 33 58      13.12942600     633.36085964      12.12942600
  1 33 59      13.11953728      49.73593923      12.11953728
  1 32 59      13.10939863     650.62523330      12.10939863
  1 31 59      13.09880653      81.05985510      12.09880653
  1 31 60      13.08946424     564.29020129      12.08946424
  1 30 60      13.07793482     232.14379377      12.07793482
  1 30 61      13.06870950     405.12656128      12.06870950
  1 29 61      13.05703518     401.31607874      12.05703518
  1 29 62      13.04780986     235.95427630      12.04780986
  1 28 62      13.03627083     561.14313522      12.03627083
  1 28 63      13.02694619      82.98830837      12.02694619
  1 27 63      13.01641384     644.56938542      12.01641384
  1 26 63      13.00614587      64.72550912      12.00614587
  1 26 64      12.99566495     659.27922328      11.99566495
  1 26 65      12.98566361      31.59718371      11.98566361
  1 25 65      12.97615897     624.96767264      11.97615897
  1 25 66      12.96499103     146.49603357      11.96499103
  1 24 66      12.95536323     518.57622127      11.95536323
  1 24 67      12.94450095     231.77259459      11.94450095
  1 23 67      12.93468453     446.32997946      11.93468453
  1 23 68      12.92103446     496.59514438      11.92103446
  1 22 68      12.91304399      55.37360645      11.91304399
  1 22 69      12.90458685     528.83177734      11.90458685
  1 22 70      12.88927578     528.83177734      11.88927578
  1 22 71      12.87550814     422.21478161      11.87550814
  1 21 71      12.86787847     104.83039020      11.86787847
  1 21 72      12.85896402     510.96572204      11.85896402
  1 21 73      12.84417022     510.96572204      11.84417022
  1 21 74      12.82937642     510.96572204      11.82937642
  1 21 75      12.81458263     510.96572204      11.81458263
  1 21 76      12.80361610     246.58415847      11.80361610
  1 20 76      12.79624824     262.37601738      11.79624824
  1 20 77      12.78521004     500.12493181      11.78521004
  1 20 78      12.77073011     500.12493181      11.77073011
  1 20 79      12.75625019     500.12493181      11.75625019
  1 20 80      12.74177026     500.12493181      11.74177026
  1 20 81      12.72729033     500.12493181      11.72729033
  1 20 82      12.71281108     500.07870704      11.71281108
  1 20 83      12.69833363     500.00000000      11.69833363
  1 20 84      12.68385732     500.00000000      11.68385732
  1 20 85      12.66938101     500.00000000      11.66938101
  1 20 86      12.65490470     500.00000000      11.65490470
  1 20 87      12.64040281     501.76740404      11.64040281
  1 20 88      12.62582338     505.35576983      11.62582338
  1 20 89      12.61826781      16.57096827      11.61826781
  1 21 89      12.61095212     488.78480156      11.61095212
  1 21 90      12.59656064     505.35576983      11.59656064
  1 21 91      12.58192926     505.35576983      11.58192926
  1 21 92      12.56703143     523.76265775      11.56703143
  1 21 93      12.55339132     418.47391655      11.55339132
  1 22 93      12.54579064     106.56836442      11.54579064
  1 22 94      12.53664725     525.04228098      11.53664725
  1 22 95      12.52132609     533.31913877      11.52132609
  1 22 96      12.50873806     336.24107964      11.50873806
  1 23 96      12.50096744     200.54142516      11.50096744
  1 23 97      12.49029371     536.78250480      11.49029371
  1 23 98      12.47475245     536.78250480      11.47475245
  1 23 99      12.46553036     100.26422970      11.46553036
  1 24 99      12.45775973     436.51827510      11.45775973
  1 24 100      12.44360599     541.19944283      11.44360599
  1 24 101      12.43100158     329.49266012      11.43100158
  1 25 101      12.42307307     218.19586449      11.42307307
  1 25 102      12.41198589     547.68852462      11.41198589
  1 25 103      12.39740927     459.24119443      11.39740927
  1 26 103      12.38948076      88.44733019      11.38948076
  1 26 104      12.38027186     547.68852462      11.38027186
  1 26 105      12.36448134     543.09505822      11.36448134
  1 26 106      12.35550144      77.22190059      11.35550144
  1 27 106      12.34770727     461.18689393      11.34770727
  1 27 107      12.33323681     538.40879452      11.33323681
  1 27 108      12.32039936     348.38177773      11.32039936
  1 28 108      12.31260519     190.02701679      11.31260519
  1 28 109      12.30206012     538.40879452      11.30206012
  1 28 110      12.28650788     535.91483410      11.28650788
  1 28 111      12.27714602     110.78774097      11.27714602
  1 29 111      12.26946293     419.94732917      11.26946293
  1 29 112      12.25570056     530.73507014      11.25570056
  1 29 113      12.24033439     530.73507014      11.24033439
  1 29 114      12.23251360       9.51220826      11.23251360
  1 30 114      12.22483052     521.22286188      11.22483052
  1 30 115      12.20960205     530.73507014      11.20960205
  1 30 116      12.19440028     519.37852528      11.19440028
  1 30 117      12.18585623      70.83068226      11.18585623
  1 31 117      12.17849550     437.63665285      11.17849550
  1 31 118      12.16479941     508.46733511      11.16479941
  1 31 119      12.15008039     508.29855830      11.15008039
  1 31 120      12.13548353     500.02849427      11.13548353
  1 31 121      12.12100640     500.02849427      11.12100640
  1 31 122      12.10652708     500.17962913      11.10652708
  1 31 123      12.09203734     500.74818406      11.09203734
  1 31 124      12.07754153     500.59854725      11.07754153
  1 31 125      12.06305656     500.00000000      11.06305656
  1 31 126      12.04858025     500.00000000      11.04858025
  1 31 127      12.03410105     500.19950248      11.03410105
  1 31 128      12.01958576     502.49378106      11.01958576
  1 31 129      12.00503725     502.49378106      11.00503725
  1 31 130      11.99048873     502.49378106      10.99048873
  1 31 131      11.97574653     515.87369570      10.97574653
  1 31 132      11.96524970     209.23039594      10.96524970
  1 30 132      11.95771012     311.59203531      10.95771012
  1 30 133      11.94565632     521.06432851      10.94565632
  1 30 134      11.93050998     525.22056319      10.93050998
  1 30 135      11.91792508     344.12399040      10.91792508
  1 29 135      11.91032183     181.09657280      10.91032183
  1 29 136      11.90009696     525.22056319      10.90009696
  1 29 137      11.88518375     504.95973744      10.88518375
  1 29 138      11.87058592     503.43472905      10.87058592
  1 29 139      11.85601017     503.43472905      10.85601017
  1 29 140      11.84143937     503.09275539      10.84143937
  1 29 141      11.82690392     500.99206009      10.82690392
  1 29 142      11.81641195     223.77645351      10.81641195
  1 28 142      11.80915943     277.21560658      10.80915943
  1 28 143      11.79789386     500.99206009      10.79789386
  1 28 144      11.78339249     500.73909986      10.78339249
  1 28 145      11.76889754     500.54827021      10.76889754
  1 28 146      11.75485912     469.20357927      10.75485912
  1 29 146      11.74759838      32.35665615      10.74759838
  1 29 147      11.73975649     509.34796767      10.73975649
  1 29 148      11.72500954     509.34796767      10.72500954
  1 29 149      11.71026258     509.34796767      10.71026258
  1 29 150      11.69550907     509.80028284      10.69550907
  1 29 151      11.68165916     446.92898973      10.68165916
  1 30 151      11.67422021      66.94212960      10.67422021
  1 30 152      11.66581218     513.87111933      10.66581218
  1 30 153      11.65063362     534.63896450      10.65063362
  1 30 154      11.63608133     470.60936115      10.63608133
  1 31 154      11.62824680      70.58787024      10.62824680
  1 31 155      11.61939041     541.19723139      10.61939041
  1 31 156      11.60342842     561.43102872      10.60342842
  1 31 157      11.59491616      26.58214790      10.59491616
  1 32 157      11.58652369     553.15564984      10.58652369
  1 32 158      11.57243246     420.24403791      10.57243246
  1 33 158      11.56390097     169.09757110      10.56390097
  1 33 159      11.55283815     595.10389576      10.55283815
  1 33 160      11.54193875     157.80927747      10.54193875
  1 34 160      11.53332384     437.29461829      10.53332384
  1 34 161      11.51997653     484.71612604      10.51997653
  1 35 161      11.51127393     116.44510481      10.51127393
  1 35 162      11.50045752     630.73527860      10.50045752
  1 35 163      11.49025445      74.07604012      10.49025445
  1 36 163      11.48153788     528.05073393      10.48153788
  1 36 164      11.46817440     395.07655562      10.46817440
  1 37 164      11.45961889     195.92468889      10.45961889
  1 37 165      11.44822710     591.00124450      10.44822710
  1 37 166      11.43748711     150.89972565      10.43748711
  1 38 166      11.42921572     420.47493814      10.42921572
  1 38 167      11.41497628     563.16212292      10.41497628
  1 38 168      11.40538690      99.25732416      10.40538690
  1 39 168      11.39723439     463.90479876      10.39723439
  1 39 169      11.38225357     570.94599001      10.38225357
  1 39 170      11.37366310      22.46943488      10.37366310
  1 40 170      11.36534846     551.89249681      10.36534846
  1 40 171      11.35064015     464.13395476      10.35064015
  1 41 171      11.34221096     118.14084306      10.34221096
  1 41 172      11.33130493     635.23013276      10.33130493
  1 41 173      11.32117618      64.44741534      10.32117618
  1 42 173      11.31198039     570.78271743      10.31198039
  1 42 174      11.30024547     239.84678035      10.30024547
  1 43 174      11.29090926     405.08355522      10.29090926
  1 43 175      11.27962019     374.74677358      10.27962019
  1 44 175      11.27017587     277.65185973      10.27017587
  1 44 176      11.25890781     500.72719932      10.25890781
  1 45 176      11.24946349     151.67143399      10.24946349
  1 45 177      11.23814955     629.87690839      10.23814955
  1 46 177      11.22874857      19.52751857      10.22874857
  1 46 178      11.21943437     623.88238234      10.21943437
  1 46 179      11.20716029     223.99116208      10.20716029
  1 47 179      11.19911396     331.83622634      10.19911396
  1 47 180      11.18656651     534.92160597      10.18656651
  1 47 181      11.17107913     534.92160597      10.17107913
  1 47 182      11.16326005       5.20787498      10.16326005
  1 48 182      11.15555992     526.70425849      10.15555992
  1 48 183      11.14027370     529.24335597      10.14027370
  1 48 184      11.12611781     448.62294251      10.12611781
  1 49 184      11.11845631      80.62041347      10.11845631
  1 49 185      11.10997726     505.09887774      10.10997726
  1 49 186      11.09536600     504.22317127      10.09536600
  1 49 187      11.08076742     504.22317127      10.08076742
  1 49 188      11.06615422     505.23339445      10.06615422
  1 49 189      11.05151234     506.20400103      10.05151234
  1 49 190      11.03730861     474.96659074      10.03730861
  1 48 190      11.02948059      65.78043442      10.02948059
  1 48 191      11.01991817     594.77585779      10.01991817
  1 48 192      11.00709439     291.07019498      10.00709439
  1 47 192      10.99886217     277.59802771       9.99886217
  1 47 193      10.98668877     563.32087574       9.98668877
  1 47 194      10.97499368     244.55709173       9.97499368
  1 46 194      10.96700954     306.97453932       9.96700954
  1 46 195      10.95493599     527.04627669       9.95493599
  1 46 196      10.93967662     527.04627669       9.93967662
  1 46 197      10.92951812     174.68694029       9.92951812
  1 45 197      10.92197385     346.45895683       9.92197385
  1 45 198      10.90941958     520.76927715       9.90941958
  1 45 199      10.89428229     524.89033775       9.89428229
  1 45 200      10.88288876     262.15668862       9.88288876
  1 44 200      10.87506586     278.23668662       9.87506586
  1 44 201      10.86321511     540.39337524       9.86321511
  1 44 202      10.84971937     391.87085169       9.84971937
  1 43 202      10.84128356     190.86082541       9.84128356
  1 43 203      10.82982329     600.79648066       9.82982329
  1 43 204      10.81952526     110.57441359       9.81952526
  1 42 204      10.81082281     490.57693381       9.81082281
  1 42 205      10.79778270     410.21286612       9.79778270
  1 41 205      10.78908234     190.79375499       9.78908234
  1 41 206      10.77762207     600.86322960       9.77762207
  1 41 207      10.76733193     109.96327289       9.76733193
  1 40 207      10.75863601     490.73654702       9.75863601
  1 40 208      10.74557621     411.41336567       9.74557621
  1 39 208      10.73687734     189.49031244       9.73687734
  1 39 209      10.72542519     601.60585636       9.72542519
  1 39 210      10.71524378     101.70934585       9.71524378
  1 38 210      10.70487872     614.29203593       9.70487872
  1 38 211      10.69499017      68.79313870       9.69499017
  1 37 211      10.68437469     664.50749926       9.68437469
  1 36 211      10.67438219      25.75777033       9.67438219
  1 36 212      10.66481237     635.30971161       9.66481237
  1 35 212      10.65387526     120.20815280       9.65387526
  1 35 213      10.64363897     586.89862838       9.64363897
  1 34 213      10.63345971     116.26823118       9.63345971
  1 34 214      10.62264863     630.54361181       9.62264863
  1 33 214      10.61293084      40.74570009       9.61293084
  1 33 215      10.60262320     671.28931190       9.60262320
  1 33 216      10.59236111      37.59942204       9.59236111
  1 32 216      10.58311488     601.11510806       9.58311488
  1 32 217      10.57143262     205.87618030       9.57143262
  1 31 217      10.56221121     431.12388760       9.56221121
  1 31 218      10.55022846     396.62511104       9.55022846
  1 30 218      10.54132872     218.15487976       9.54132872
  1 30 219      10.52939377     606.29219390       9.52939377
  1 30 220      10.51976429      58.89658781       9.51976429
  1 29 220      10.51106867     541.78253315       9.51106867
  1 29 221      10.49800785     360.43750653       9.49800785
  1 28 221      10.48931224     240.24161443       9.48931224
  1 28 222      10.47713881     600.67912096       9.47713881
  1 28 223      10.46755581      61.29930429       9.46755581
  1 27 223      10.45943600     499.60340274       9.45943600
  1 27 224      10.44453622     529.64981037       9.44453622
  1 27 225      10.43182549     348.38632338       9.43182549
  1 26 225      10.42421263     177.49820168       9.42421263
  1 26 226      10.41416699     516.43828298       9.41416699
  1 26 227      10.39921475     516.43828298       9.39921475
  1 26 228      10.38426251     516.43828298       9.38426251
  1 26 229      10.37207378     325.53907204       9.37207378
  1 25 229      10.36469651     184.07078321       9.36469651
  1 25 230      10.35468494     507.51223365       9.35468494
  1 25 231      10.34000745     506.38539861       9.34000745
  1 25 232      10.32543870     500.00000000       9.32543870
  1 25 233      10.31096239     500.00000000       9.31096239
  1 25 234      10.29648608     500.00000000       9.29648608
  1 25 235      10.28187476     509.32684527       9.28187476
  1 25 236      10.26726960     499.57413605       9.26726960
  1 26 236      10.25987260      11.39862309       9.25987260
  1 26 237      10.25207977     526.91721246       9.25207977
  1 26 238      10.23672044     534.08066250       9.23672044
  1 26 239      10.22290440     420.30845503       9.22290440
  1 27 239      10.21517289     113.77220747       9.21517289
  1 27 240      10.20544782     558.01954110       9.20544782
  1 27 241      10.19049113     475.16444522       9.19049113
  1 28 241      10.18239863      83.85254916       9.18239863
  1 28 242      10.17309225     559.01699437       9.17309225
  1 28 243      10.15889096     421.98501958       9.15889096
  1 29 243      10.15046868     159.81251719       9.15046868
  1 29 244      10.13963989     588.22281795       9.13963989
  1 29 245      10.12821232     201.17508014       9.12821232
  1 30 245      10.11969703     387.04773782       9.11969703
  1 30 246      10.10672644     508.93921197       9.10672644
  1 31 246      10.09764751     118.21916649       9.09764751
  1 31 247      10.08676007     633.86730253       9.08676007
  1 32 247      10.07707052      35.47126647       9.07707052
  1 32 248      10.06701204     659.35213306       9.06701204
  1 33 248      10.05628732      81.49426884       9.05628732
  1 33 249      10.04724201     543.34093465       9.04724201
  1 34 249      10.03517276     290.38345710       9.03517276
END period  1

