# File generated by Flopy version 3.3.6 on 07/14/2023 at 11:25:16.
BEGIN options
  BUDGET  FILEOUT  sto.bud
  HEAD  FILEOUT  sto.hds
END options

BEGIN period  1
  SAVE  head  all
  SAVE  budget  all
END period  1

