# File generated by Flopy version 3.3.6 on 07/14/2023 at 11:25:15.
BEGIN options
  SAVE_FLOWS
  SAVE_SPECIFIC_DISCHARGE
END options

BEGIN griddata
  icelltype
    CONSTANT  1
  k  LAYERED
    INTERNAL  FACTOR  1.0
         258.47368195     260.68955909     267.67146406     277.05437376     284.10869182     284.53713709     274.99589468     270.67468472     260.19651238     245.29455094     236.78135854     226.76039640     217.41514109     204.87167311     194.54530395     189.10980620     179.21353846     174.50438479     162.41010821     153.23716381     144.01471888     142.85937598     138.29893770     137.15876318     139.55931215     145.31004141     152.05826412     161.49074128     167.92840779     171.13258317     171.63030220     173.45368265     181.02537939     186.57628339     186.25172239     179.39248510     172.90398758     166.20725916     157.29287227     142.38193365     126.03978055     112.29406369     100.51374683      89.33647256      82.94101797      77.06723441      71.01659633      66.64811572      67.06058327      67.51606950      68.94693714      70.61821367      69.97305883      68.84155860      69.64443582      71.87511440      76.84301845      82.00221087      86.36021525      88.92269772      92.99702044      96.95108337     105.47363525     109.66908084     119.06460903     127.90391018     135.31025533     137.42289321     134.55011907     139.31279961     141.05778528     140.40188874     142.42319731     143.91731179     141.41622848     135.45385968     130.44719602     125.24802520     121.19181263     117.60749516     115.77329300     115.99700418     111.01765435     110.18428377     110.09751379     106.49315205     103.94479108     100.79773118      98.13010671      95.15162876      95.00626155      96.22470426      96.25951194      93.57638490      87.78425404      84.04678689      81.89029576      81.76913185      78.93235950      76.78396267      75.35824557      72.24160242      70.46650801      70.66997518      69.25563928      74.20277029      82.66867802      95.40321299     104.96328625     113.79657871     122.86194356     130.70648104     139.12085728     144.11243069     144.17186072     150.65583268     155.57594725     161.81348823     170.13790903     177.21600881     179.12774404     174.29153570     169.74577204     164.24937393     155.51830938     148.13631960     142.40615237     140.62526913     135.21983655     132.61082936     134.15990525     136.31151684     134.69380084     133.12610182     131.63740508     130.72431760     130.36637470     133.03870561     133.11610312     134.40969961     141.07781804     149.83878423     159.97230599     174.31722889     191.64492009     211.69450887     238.44967272     265.11402516     297.80646135     331.49588534     362.76059743     398.17936992     433.13948656     466.95891128     489.04347120     519.84570676     536.57316205     544.53811430     539.95221214     512.71154225     470.74780645     433.04760481     405.11116098     395.86428589     391.88995461     379.87394011     345.56418146     321.32078684     297.93360236     270.79583509     253.04560265     237.80694049     232.89581169     222.44445405     210.75325044     197.86754675     179.98680179     169.66422825     165.96496815     174.45941601     188.86228292     196.38788245     200.73853927     199.94539583     195.86080601     198.43344849     201.03535747     196.23561478     195.25989991     200.05541084     216.46098767     228.31388524     251.47220260     273.64558090     291.70585582     313.22221934     334.73202007     347.35970953     358.35759863     381.16417063     405.43648812     442.67982217     462.61828410     484.22989055     509.01182656     520.86695428     518.07775533     489.50234139     458.10897978     450.18101224     442.81738508     436.28214200     453.44314276     490.12906905     527.69650947     560.13159808     581.56523301     614.95612053     644.28144877     663.16921056     682.76461658     719.01619272     786.23072074     830.99895674     854.05641717     855.23596804     864.36074856     857.19368299     846.11666116     813.44933513     788.42905796     782.04958461     727.93171529     671.69105601     629.04490804     580.92840100     545.11559036     512.52697793     495.75886585     469.30033352     440.43089712     405.44895341     377.41169233     337.53320845     300.05837941     273.96459027     261.48999918     259.47245871     255.21549225     254.73648957
         302.02136350     304.47344282     296.08710960     291.06165523     289.72718835     283.14002406     275.96775696     264.21241649     264.82814462     259.15709568     255.12592048     242.92747381     231.59454418     224.82949123     228.22790673     229.87133368     226.27109615     211.88958794     194.04320852     178.91611924     168.37903606     165.47378952     160.51541895     157.45524645     154.01966166     153.69450872     156.22308509     160.15164228     164.98376971     174.06861795     178.85693056     183.86954804     193.01184970     203.88265661     209.29660545     212.38620262     212.96746047     203.90892103     185.35077645     162.25659058     144.36269774     127.65132175     113.02579275      99.47119718      90.25457413      85.66224260      80.85964302      75.08608513      73.39731948      74.25969122      74.90693181      74.82495652      76.15498720      78.62914683      79.57784691      83.14466969      87.10207063      91.84144032      95.52405844      93.43323906      93.34815498      96.62227271     101.68809002     109.31351519     124.09255437     135.46013245     139.56486845     145.24440355     147.15080726     149.14659740     150.55861800     149.94268008     148.99068330     150.96650484     152.67255766     147.98342980     141.61486709     132.92567883     126.61134096     120.95864860     118.59050774     114.18221969     109.64613740     108.05726271     107.84365966     104.70600630     105.24198495     103.69041270     101.28589646     100.81427980     101.96306281     101.76851372     100.59535555      98.38337558      95.14119912      96.82891202      95.68939634      93.61366584      88.90851755      84.03193144      80.81881382      80.50603964      80.17832367      80.65817316      81.26082273      89.08335800      95.25179840     102.20616707     112.87248692     127.50674340     139.60459829     145.20113489     148.49823122     148.62006555     150.16782825     150.14568313     155.68818977     165.81207900     170.82261234     177.74969930     181.69219363     185.75660704     175.96054572     162.86452756     152.27634579     139.60188809     132.37723031     130.67575933     128.76982539     126.42471173     126.96544385     130.26172780     133.91700789     134.09943362     132.33266326     133.40575172     137.20226122     139.67158892     140.16103130     143.33664346     152.38650200     166.60081874     181.41928190     192.03177329     209.86286240     228.48416902     262.73935593     304.37881615     349.53493888     389.41582531     438.75974629     479.91056689     508.77690554     518.03923558     514.82774174     533.11957169     546.56644132     544.18622352     536.70813275     503.71431288     468.26189311     441.00920116     409.62852796     404.35072301     401.70542236     390.72900801     355.21495294     315.69259235     279.60197454     258.76656027     236.48194636     224.53474752     219.50605554     209.12069845     189.17955028     171.81301860     159.94317217     155.16318112     152.14616253     154.10560744     160.85882110     166.09332885     170.74403015     172.44583533     167.16391368     166.37084608     172.12217544     173.16579840     174.79511997     180.65168422     194.24290269     208.21008715     226.65476414     232.39487681     231.06493287     243.32411821     267.69459967     296.83707002     328.39025919     353.23135290     372.80522235     374.96115571     373.33308230     390.84781109     413.25024015     433.69879726     447.74672191     433.60480848     412.89840940     391.13697166     361.50110690     337.90841125     335.39100161     356.73439242     388.84102462     419.07416975     468.37265258     502.60314422     503.34718974     505.91158731     544.02976273     602.66943544     668.74646855     741.61011205     777.96032735     790.39331594     803.53897309     801.62653104     801.38898166     785.11327620     773.51351282     758.58784116     740.57988285     709.19973703     652.54997787     593.64097341     554.03714203     522.28707384     495.98969288     463.04192888     433.80809204     422.80126560     409.96719979     386.31315925     351.71131887     319.25570963     301.04161459     300.42271906     295.54986681     292.40522541
         301.97425724     297.72244748     294.46565605     288.85374844     276.33840922     263.61593226     260.42732198     261.77803768     258.58586123     243.01202992     234.16656257     228.75512197     226.40433667     231.67678906     236.46075367     232.99238444     226.25181553     218.78160078     210.19831902     197.87981299     187.53256191     184.69345384     176.22487215     170.56189128     164.87404276     161.91542189     162.76843307     165.95263399     173.65271534     185.42493186     194.27158250     205.21056655     215.67552944     217.36102920     217.75165202     221.03313007     224.13052564     228.08184034     215.04812563     194.82520589     173.63068698     157.23236664     134.74854731     119.82617387     113.63220373     107.87360089     103.53697318      98.32659013      94.07731404      91.21860496      87.34610771      82.72415918      82.07344559      87.45115499      93.75805495      99.39588494      98.19251045      99.25561085      99.20019904      99.82571383      97.69059500     100.28766511     108.72102771     119.27081905     134.13965294     144.98500351     152.78323843     153.92134533     154.83324202     156.95170064     157.42381366     162.69580988     164.62134762     160.79110513     157.75623894     152.68395966     147.72777158     138.83672027     130.25768388     119.86441618     114.66586893     115.45251541     115.01318182     114.76494211     114.13760357     112.74762730     112.44320344     112.69214544     110.72525839     111.02981729     109.46584759     113.61831574     116.26930407     113.14577626     112.02523850     108.84509621     103.61513370     101.03195175     100.94604116      99.57951830      99.75476548     100.92650488      96.92208767      98.23828716      99.26341522     103.77189583     110.89711551     120.60707461     131.37663005     141.65482995     153.28530354     163.33079049     162.37832401     157.99147970     156.89223105     159.22067259     160.76728395     160.48477879     164.91202238     170.16061227     173.60035527     174.58436892     164.95033869     151.30287739     136.91000782     124.48769964     119.68879689     118.23876168     117.46677043     117.03498738     119.42982886     121.53562098     124.46943473     123.72222609     124.60738696     127.91051081     130.01564868     132.28451339     136.32263390     143.05295155     155.10453967     172.42466611     191.44706398     199.65086473     215.40073511     240.42248952     276.44814063     322.06672003     366.18178616     418.64234942     468.09683683     496.07986756     513.92018758     513.89543829     507.76293447     498.72149299     504.06155156     489.19274735     466.07280454     431.84063273     409.30232800     406.23509271     399.53727694     396.11001077     383.16064415     359.37407919     327.16462556     299.85100152     268.77295813     233.21405010     216.87486316     200.95171594     190.79136212     176.12572534     157.96786068     148.98038242     141.86699188     133.54789601     129.12851006     130.84447873     128.84224614     130.12318599     131.48352468     129.96421539     129.51609415     131.30110341     131.81151791     136.26295678     142.18281380     149.78666833     163.56066397     171.68580755     177.61497076     185.87696443     197.38012711     222.45416344     244.48578750     265.75427977     278.61505402     299.58598367     321.86327633     344.63035953     351.42817069     367.88893273     375.33790992     372.75218595     371.70973788     369.32421804     344.55872553     317.81328149     298.70452915     282.05212522     277.81452643     279.15565997     297.21223796     325.73310651     353.44812782     372.98014163     384.68177146     404.80628342     447.46353245     515.84743169     600.48206674     674.56223347     715.84881021     732.46996282     731.05914832     718.70998752     716.47211897     721.82650599     714.60258058     708.77509928     682.85566232     662.83975567     615.01322510     556.00259394     500.89669300     467.74457304     451.70548706     434.92620628     424.95621418     415.88775036     407.24268331     395.41188214     370.50255630     347.40988054     325.57404840     316.80991442     306.94146572     301.45733122
         290.66709729     298.68704114     296.76473647     295.39593865     286.92525373     272.08007031     270.30693381     267.35262349     268.17408902     259.05521258     241.80465310     233.12857740     237.36973685     252.97216570     259.21161893     252.40336525     232.27524260     214.34099757     205.40022186     200.41684267     193.60267312     191.03459242     186.21247265     179.56841289     172.01425044     167.62762954     165.12229394     166.14663458     171.80319268     181.15328963     191.65194648     207.88665121     226.55789529     241.53952268     252.43466085     253.90200896     246.14744452     246.23449640     242.54646201     231.34578490     205.42201810     184.45142317     160.94339930     146.40562566     145.46691663     138.56467203     136.83158345     130.98944427     124.25478550     113.22028262     102.52984401      95.50661633      96.58194943     102.14398327     107.31547986     114.73800516     118.07371109     116.21552609     110.60616573     102.43875295      99.63470216      99.96736014     107.95485245     116.97904520     131.76742165     145.94061609     157.41926709     166.36064499     169.37812966     169.81642163     168.34047831     170.22198119     169.01483416     162.37140031     153.81961516     145.09777202     141.84654629     137.85012994     132.67836493     126.33676276     124.15702488     125.98365054     128.18029087     130.52710990     131.47996229     133.86645740     130.69117649     122.14073950     117.74401546     113.45515298     111.95927294     116.61342804     122.27048500     126.29037879     123.49329050     118.29673118     117.23292970     119.25136787     121.17642330     126.40135639     126.78330771     127.95446487     129.93098234     131.49498789     130.14107834     136.40197146     144.25532690     152.54697526     163.58664110     170.93258569     180.68437795     184.64586313     186.02874016     179.45141285     178.26131717     183.06066200     177.77866613     174.99975403     169.73940383     170.26367566     164.16869962     158.88847402     151.86290646     140.07393818     126.80415938     117.55300068     114.05721198     112.80738549     114.96719596     115.15713642     115.31780019     117.21950546     117.46662347     117.70089938     120.84817121     122.79132147     129.46485702     135.19377261     140.18090322     145.96337211     157.66812368     174.59580867     187.95853942     199.88905148     216.12520183     238.33064711     271.81238469     311.12982701     357.40100082     404.99896517     440.99098895     457.37339368     463.02400267     460.14822039     449.76640956     429.37776055     417.53242543     414.18541900     396.46592326     376.31490308     361.19339982     368.11434339     369.41150916     356.12998248     341.01546390     317.67094344     287.66010876     264.21732350     237.40385677     214.32235681     197.58932918     183.44960242     168.07308426     153.28890691     144.21039141     133.08575231     124.75553001     116.70805545     112.68832123     105.04030401     102.97511191     104.33456789     103.66980256     101.68801184     100.71056748     100.84438731     101.14231946     103.76424877     110.09161963     119.77138757     134.23921700     145.67223970     155.75154051     166.46218687     175.73026105     193.35167501     214.92966873     231.99716480     250.85036310     266.26994367     292.06844027     308.03586691     322.54855670     322.21703484     319.78953073     323.26479290     321.94250905     315.56909299     301.61624909     285.30168459     273.99879781     256.43747628     246.10939870     247.63016509     254.78520952     273.35791047     290.20869709     311.41972717     338.05391614     366.08225793     407.37530184     464.43131528     540.42022346     608.97782167     663.10768957     682.70635428     686.28127937     666.73379486     637.42051603     631.61501456     611.69980276     596.55208768     586.83662387     572.95923729     526.13563186     475.00499542     435.30847161     401.72937834     384.21894083     376.58548084     374.21587142     365.60669588     352.96405201     345.54146915     336.04100511     327.27986468     308.33777139     287.12404026     274.80657736     275.16892538
         276.37177795     274.06706175     278.39143005     274.53876037     268.33166354     269.14719450     273.76235094     279.14801327     277.74417628     275.52640460     261.93622540     252.57522837     254.58910016     263.28262514     264.53692773     246.96057621     231.85617409     216.97667071     205.60492470     197.83719370     191.74306349     191.32200780     189.73292320     184.62741986     177.98157630     170.18529394     166.57280803     170.26718756     178.33904535     186.32509860     195.45942847     215.43069472     243.62147879     265.56498991     273.95456335     269.21893475     259.18886056     251.22932012     242.17507385     235.60709420     222.08975413     208.56266009     197.06191456     188.52291939     181.38696875     173.07621362     174.05088501     165.71168743     162.04058976     151.15642392     139.40810795     133.57847541     130.93909957     133.33625665     135.12931011     139.05956044     140.01113142     136.80417634     133.57227502     124.77899269     116.96544678     113.46191164     111.91217904     116.87670778     127.90683984     142.69332432     153.56490027     156.97595446     157.71693388     161.70773740     167.87822497     173.04995027     171.39207715     160.55701155     145.12066868     136.06073453     130.51379518     130.83629280     135.11486478     134.10049605     135.88256516     138.38427329     144.52920117     146.13471167     151.40806445     153.91764654     150.22855827     141.15876532     133.13601309     128.34217833     129.98352478     134.58063859     138.93335176     141.14620154     138.94952097     132.81951349     133.08570963     136.48190519     136.41787534     142.18866378     148.63126089     160.35659764     167.11072947     173.47911946     179.80707415     184.62206402     188.44533317     194.27234465     199.11382244     203.69413854     208.74593822     204.82701843     193.81377238     188.18148573     192.65448821     203.46484992     208.07896105     208.33569179     201.89098833     190.36549830     178.27982724     166.02953089     153.96879152     142.24143895     134.17199502     125.89320768     120.41781171     117.82664088     119.31791442     119.07983625     118.30100926     115.49224877     114.30406147     116.25549768     122.10808950     122.26135828     123.48812065     125.00370643     131.87832062     139.96487185     150.27929361     160.38565403     171.39360518     187.87243931     204.10017926     223.62515968     247.72903647     275.99062939     309.92217077     343.55717980     361.10329930     375.24065143     382.29597717     382.96320966     374.30718479     358.27734880     347.51100987     333.05763932     320.65384013     304.17403970     295.30252496     289.98264167     293.80014534     296.10947619     291.22858778     274.12246935     254.40705484     236.28398528     217.82559823     199.59211159     184.98804117     168.64785425     151.75424625     136.62676179     125.46697305     115.03664913     104.57824068      98.01199278      92.21201962      87.03485103      86.56466276      87.12410370      88.86269026      91.11389143      91.82002197      89.95914613      90.88108747      94.00490805     100.15705278     110.12796846     120.09721603     131.18219532     146.95160619     157.12505498     165.25679485     173.21710284     182.57023239     196.35294163     211.49499246     223.49906218     241.19441611     250.18943915     259.99563149     261.43815097     257.99864436     260.75730805     267.98843507     265.15776333     261.67314860     256.07515759     256.48785010     249.22975743     240.02058826     238.44860046     242.34190484     259.81122337     269.39719701     291.95864099     328.80642194     373.37230361     405.38219758     447.55170492     503.17778942     566.24139961     622.90088901     649.47990552     660.12750205     642.14134740     606.16543141     567.93165447     541.90467316     515.42220253     502.44996988     494.42414434     464.59135860     426.37410344     388.73604495     362.70033452     341.17807881     328.27606975     321.07790762     319.74887490     308.30744761     296.01040712     291.16370148     284.85646747     276.18908367     270.95077801     267.05880740     274.25356297
         272.44342318     263.90537238     258.98630871     262.90985267     266.82622517     277.38893155     289.12918162     286.39988903     285.37565448     273.99992669     255.60059988     243.86426714     241.74750352     243.24141263     241.43204763     226.33818587     218.05191378     211.05037148     204.61949234     199.52490256     201.68346567     199.65667308     198.48917231     200.68503035     196.16603570     190.51415289     194.36706298     206.16658174     224.96924099     246.32726749     260.71515314     267.08980940     284.60580257     294.95451135     297.60932998     285.70607558     273.87855691     265.24451249     264.88043403     267.33521480     267.66135491     253.78905265     245.47163357     241.02664247     243.09321144     234.28144982     222.79997588     211.32169089     211.96529793     207.10894363     199.68170407     191.65346759     186.29276626     179.84193090     182.40812201     185.60212572     181.67553774     178.34827028     170.28701693     155.67368930     144.33136502     133.75876156     126.39704065     129.88010033     137.50835651     144.10940449     152.08047999     156.28931739     149.14307801     152.94111996     157.62255635     162.83445246     162.24884536     156.15625002     147.45565483     139.33187244     132.93794287     133.39244268     138.54254931     142.44544366     148.63821860     158.27777170     163.23735936     162.57738692     164.68459842     164.69532933     163.15938075     155.73881560     147.57384623     142.83097695     138.84066915     140.69402253     147.37180301     149.97143980     153.01173411     156.83553329     156.89365952     157.26474976     163.25149442     174.27448550     181.66534034     195.00916946     211.44433273     222.86673739     227.32408026     235.41584713     234.26908700     235.83410903     231.77402301     233.08051186     238.80019060     232.91802988     230.49273438     229.06119563     229.20208435     234.65154813     236.48485715     233.30246211     225.44531593     211.25857402     193.69094007     177.50991207     166.74169294     157.37679077     148.39982587     145.17088446     144.64236937     139.34913411     136.95752593     133.94126817     127.30095121     120.99443420     116.06658841     115.74166821     118.28127815     121.17917305     121.90525743     122.49385588     126.42354551     133.55491198     145.62903434     155.44217334     161.71113504     169.85213003     188.00593972     214.81352054     241.60788985     270.21054356     299.34621565     324.41271640     334.38368650     330.43203096     332.73529200     339.50768387     331.64387169     313.94016380     294.17330786     273.90938836     256.44166154     240.64515392     230.11839319     236.19975038     245.78247186     249.16158060     247.78902005     247.11299639     235.14400052     215.87531176     197.92072766     188.71769278     173.23811883     158.07347016     137.55999529     121.31553511     114.16925202     106.78758752      98.11619017      90.06788039      81.20791789      73.64005514      72.38303551      74.14275526      78.60496272      84.20248340      87.61847532      89.31090278      91.01548762      95.28881138      99.57470571     104.39585484     110.82317503     115.33821494     125.87877859     136.59741843     145.81034616     152.87329867     163.11692167     177.62405301     190.85354558     195.90684292     201.70913606     201.94578884     209.73041352     221.02489007     228.21448307     228.40390327     221.68369359     221.23626178     225.57482511     224.40456614     230.62136740     233.85929808     242.54682819     244.91677218     251.46895332     266.37015061     278.26292169     304.08825085     338.86886723     362.75063513     389.64211684     426.78646671     468.46085355     509.19926305     538.09008561     558.04009741     586.33242483     591.22966840     555.10663773     526.13170403     503.38507819     487.42765605     468.45653141     454.48580421     416.26987586     374.68742207     348.01916570     332.70452698     312.10027029     306.67058712     299.89977465     291.04090024     271.11729266     262.56811274     260.42031665     264.26532114     270.38443109     270.49694523     268.74650284     271.94115491
         290.33465610     283.51803871     279.06503640     282.17289328     276.35362493     280.23264430     284.58206672     282.84730330     277.60218909     266.12108502     248.10042748     233.67321107     229.82801175     232.30174484     225.93068621     210.73585106     199.25573474     193.59511526     188.88457556     185.38825958     190.54646567     204.23004906     213.07528831     221.27683058     229.50751716     235.32521709     242.11813600     252.42561877     276.10730431     303.54411234     327.06578482     350.00134491     346.97805313     340.51943591     332.87516037     325.60421760     325.71787603     329.38000892     346.28306133     353.75576385     346.90836496     333.96069833     318.92345388     313.58358282     307.46724159     299.18214056     288.20334076     285.90044464     279.19840669     268.87475498     254.87040907     247.98917619     245.21994435     241.67885024     233.51272893     230.73582030     225.89787452     216.79164936     203.49951547     189.30831776     168.57182060     156.99471569     147.21995738     139.45594386     142.97093896     148.63246683     151.16227703     151.27339009     149.22616579     148.90231785     149.30705024     152.29287948     155.87423590     158.09833628     156.02555231     149.92242050     144.48627418     143.87817095     147.07718059     151.15142914     159.51301855     165.97309969     167.25028964     170.22423690     174.30501872     179.14253314     173.35111834     161.30085450     152.73949819     149.17471033     146.93449860     147.39376271     152.43301420     154.35857761     160.38208759     167.41628681     172.14638175     172.09090223     172.78027884     181.03983254     194.08371285     206.85665463     228.82184454     254.16184678     264.90664355     264.05481095     256.23942223     257.21359874     261.79994672     259.58570002     255.03589422     248.90606344     244.33780292     230.00552844     220.02459279     223.22011645     224.04256838     224.33311117     220.83842427     218.40237597     207.18588278     191.51577742     190.45563033     186.23017417     182.71724408     183.11062985     184.65403871     178.36380597     168.66702114     163.79030807     152.75662595     140.41223804     130.26190943     125.09651849     121.36790111     122.42062543     123.01186109     126.61356660     132.02717582     138.48153201     144.73327207     147.02908077     153.39269974     155.67739056     168.46135654     192.92196863     225.58379138     255.58612047     278.98069947     295.60630658     306.33690736     313.61564420     324.67692781     332.96676121     318.65330203     297.54044270     272.08216424     244.25679467     231.77569832     219.37470682     209.84454040     209.39758700     213.64186623     216.39567870     217.51519830     216.42456619     210.13869308     202.66282640     190.39656912     174.14503408     159.75328812     142.51322262     128.20257640     112.75331153     102.32033872      94.24187143      89.00106654      81.50853947      74.90858050      69.73105413      68.06170403      69.76591031      74.80342502      79.88064202      84.33354527      87.65806472      93.50149097      98.32808305      98.71006409      98.37631280      97.43208765     103.82167965     113.66730887     121.65560046     127.65389199     135.39152818     145.24069209     154.91571858     158.94513465     162.46271654     166.78468710     170.15211157     181.06207686     191.54827646     197.67768854     200.53739247     197.47702087     199.23849288     204.52761974     210.23931284     216.56124084     219.48768041     224.66928047     232.44778953     238.46269476     244.45404577     262.20973882     284.19828046     301.28714030     328.19441029     353.61115529     379.04812140     404.16272772     431.19314006     458.36146542     468.58362211     472.39445436     469.07431673     448.75006083     450.85100811     448.78339132     450.21237029     439.10744953     419.65536661     399.96166901     367.16738623     343.48191760     333.60549422     327.90994346     315.33405520     309.70028307     304.36119640     289.85711754     274.26929013     260.87549734     262.53873753     265.02231100     279.35708130     290.21307079     297.93715154