# File generated by Flopy version 3.3.6 on 07/14/2023 at 11:25:16.
BEGIN options
END options

BEGIN dimensions
  MAXBOUND  1
  NSEG  1
END dimensions

