# File generated by Flopy version 3.3.6 on 07/14/2023 at 11:25:16.
BEGIN options
END options

BEGIN dimensions
  MAXBOUND  14884
END dimensions

BEGIN period  1
  1 2 84  2.00000000E-04
  1 2 195  2.00000000E-04
  1 2 196  2.00000000E-04
  1 2 197  2.00000000E-04
  1 2 201  2.00000000E-04
  1 3 83  2.00000000E-04
  1 3 84  2.00000000E-04
  1 3 89  2.00000000E-04
  1 3 90  2.00000000E-04
  1 3 91  2.00000000E-04
  1 3 92  2.00000000E-04
  1 3 93  2.00000000E-04
  1 3 94  2.00000000E-04
  1 3 95  2.00000000E-04
  1 3 96  2.00000000E-04
  1 3 97  2.00000000E-04
  1 3 99  2.00000000E-04
  1 3 194  2.00000000E-04
  1 3 195  2.00000000E-04
  1 3 196  2.00000000E-04
  1 3 197  2.00000000E-04
  1 3 198  2.00000000E-04
  1 3 199  2.00000000E-04
  1 3 200  2.00000000E-04
  1 3 201  2.00000000E-04
  1 3 202  2.00000000E-04
  1 3 203  2.00000000E-04
  1 4 83  2.00000000E-04
  1 4 84  2.00000000E-04
  1 4 85  2.00000000E-04
  1 4 86  2.00000000E-04
  1 4 87  2.00000000E-04
  1 4 88  2.00000000E-04
  1 4 89  2.00000000E-04
  1 4 90  2.00000000E-04
  1 4 91  2.00000000E-04
  1 4 92  2.00000000E-04
  1 4 93  2.00000000E-04
  1 4 94  2.00000000E-04
  1 4 95  2.00000000E-04
  1 4 96  2.00000000E-04
  1 4 97  2.00000000E-04
  1 4 98  2.00000000E-04
  1 4 99  2.00000000E-04
  1 4 100  2.00000000E-04
  1 4 101  2.00000000E-04
  1 4 191  2.00000000E-04
  1 4 192  2.00000000E-04
  1 4 193  2.00000000E-04
  1 4 194  2.00000000E-04
  1 4 195  2.00000000E-04
  1 4 196  2.00000000E-04
  1 4 197  2.00000000E-04
  1 4 198  2.00000000E-04
  1 4 199  2.00000000E-04
  1 4 200  2.00000000E-04
  1 4 201  2.00000000E-04
  1 4 202  2.00000000E-04
  1 4 203  2.00000000E-04
  1 4 204  2.00000000E-04
  1 4 205  2.00000000E-04
  1 4 206  2.00000000E-04
  1 5 82  2.00000000E-04
  1 5 83  2.00000000E-04
  1 5 84  2.00000000E-04
  1 5 85  2.00000000E-04
  1 5 86  2.00000000E-04
  1 5 87  2.00000000E-04
  1 5 88  2.00000000E-04
  1 5 89  2.00000000E-04
  1 5 90  2.00000000E-04
  1 5 91  2.00000000E-04
  1 5 92  2.00000000E-04
  1 5 93  2.00000000E-04
  1 5 94  2.00000000E-04
  1 5 95  2.00000000E-04
  1 5 96  2.00000000E-04
  1 5 97  2.00000000E-04
  1 5 98  2.00000000E-04
  1 5 99  2.00000000E-04
  1 5 100  2.00000000E-04
  1 5 101  2.00000000E-04
  1 5 102  2.00000000E-04
  1 5 191  2.00000000E-04
  1 5 192  2.00000000E-04
  1 5 193  2.00000000E-04
  1 5 194  2.00000000E-04
  1 5 195  2.00000000E-04
  1 5 196  2.00000000E-04
  1 5 197  2.00000000E-04
  1 5 198  2.00000000E-04
  1 5 199  2.00000000E-04
  1 5 200  2.00000000E-04
  1 5 201  2.00000000E-04
  1 5 202  2.00000000E-04
  1 5 203  2.00000000E-04
  1 5 204  2.00000000E-04
  1 5 205  2.00000000E-04
  1 5 206  2.00000000E-04
  1 5 207  2.00000000E-04
  1 5 208  2.00000000E-04
  1 6 79  2.00000000E-04
  1 6 80  2.00000000E-04
  1 6 81  2.00000000E-04
  1 6 82  2.00000000E-04
  1 6 83  2.00000000E-04
  1 6 84  2.00000000E-04
  1 6 85  2.00000000E-04
  1 6 86  2.00000000E-04
  1 6 87  2.00000000E-04
  1 6 88  2.00000000E-04
  1 6 89  2.00000000E-04
  1 6 90  2.00000000E-04
  1 6 91  2.00000000E-04
  1 6 92  2.00000000E-04
  1 6 93  2.00000000E-04
  1 6 94  2.00000000E-04
  1 6 95  2.00000000E-04
  1 6 96  2.00000000E-04
  1 6 97  2.00000000E-04
  1 6 98  2.00000000E-04
  1 6 99  2.00000000E-04
  1 6 100  2.00000000E-04
  1 6 101  2.00000000E-04
  1 6 102  2.00000000E-04
  1 6 103  2.00000000E-04
  1 6 104  2.00000000E-04
  1 6 105  2.00000000E-04
  1 6 106  2.00000000E-04
  1 6 107  2.00000000E-04
  1 6 190  2.00000000E-04
  1 6 191  2.00000000E-04
  1 6 192  2.00000000E-04
  1 6 193  2.00000000E-04
  1 6 194  2.00000000E-04
  1 6 195  2.00000000E-04
  1 6 196  2.00000000E-04
  1 6 197  2.00000000E-04
  1 6 198  2.00000000E-04
  1 6 199  2.00000000E-04
  1 6 200  2.00000000E-04
  1 6 201  2.00000000E-04
  1 6 202  2.00000000E-04
  1 6 203  2.00000000E-04
  1 6 204  2.00000000E-04
  1 6 205  2.00000000E-04
  1 6 206  2.00000000E-04
  1 6 207  2.00000000E-04
  1 6 208  2.00000000E-04
  1 7 77  2.00000000E-04
  1 7 78  2.00000000E-04
  1 7 79  2.00000000E-04
  1 7 80  2.00000000E-04
  1 7 81  2.00000000E-04
  1 7 82  2.00000000E-04
  1 7 83  2.00000000E-04
  1 7 84  2.00000000E-04
  1 7 85  2.00000000E-04
  1 7 86  2.00000000E-04
  1 7 87  2.00000000E-04
  1 7 88  2.00000000E-04
  1 7 89  2.00000000E-04
  1 7 90  2.00000000E-04
  1 7 91  2.00000000E-04
  1 7 92  2.00000000E-04
  1 7 93  2.00000000E-04
  1 7 94  2.00000000E-04
  1 7 95  2.00000000E-04
  1 7 96  2.00000000E-04
  1 7 97  2.00000000E-04
  1 7 98  2.00000000E-04
  1 7 99  2.00000000E-04
  1 7 100  2.00000000E-04
  1 7 101  2.00000000E-04
  1 7 102  2.00000000E-04
  1 7 103  2.00000000E-04
  1 7 104  2.00000000E-04
  1 7 105  2.00000000E-04
  1 7 106  2.00000000E-04
  1 7 107  2.00000000E-04
  1 7 108  2.00000000E-04
  1 7 190  2.00000000E-04
  1 7 191  2.00000000E-04
  1 7 192  2.00000000E-04
  1 7 193  2.00000000E-04
  1 7 194  2.00000000E-04
  1 7 195  2.00000000E-04
  1 7 196  2.00000000E-04
  1 7 197  2.00000000E-04
  1 7 198  2.00000000E-04
  1 7 199  2.00000000E-04
  1 7 200  2.00000000E-04
  1 7 201  2.00000000E-04
  1 7 202  2.00000000E-04
  1 7 203  2.00000000E-04
  1 7 204  2.00000000E-04
  1 7 205  2.00000000E-04
  1 7 206  2.00000000E-04
  1 7 207  2.00000000E-04
  1 7 208  2.00000000E-04
  1 7 209  2.00000000E-04
  1 7 210  2.00000000E-04
  1 8 71  2.00000000E-04
  1 8 75  2.00000000E-04
  1 8 76  2.00000000E-04
  1 8 77  2.00000000E-04
  1 8 78  2.00000000E-04
  1 8 79  2.00000000E-04
  1 8 80  2.00000000E-04
  1 8 81  2.00000000E-04
  1 8 82  2.00000000E-04
  1 8 83  2.00000000E-04
  1 8 84  2.00000000E-04
  1 8 85  2.00000000E-04
  1 8 86  2.00000000E-04
  1 8 87  2.00000000E-04
  1 8 88  2.00000000E-04
  1 8 89  2.00000000E-04
  1 8 90  2.00000000E-04
  1 8 91  2.00000000E-04
  1 8 92  2.00000000E-04
  1 8 93  2.00000000E-04
  1 8 94  2.00000000E-04
  1 8 95  2.00000000E-04
  1 8 96  2.00000000E-04
  1 8 97  2.00000000E-04
  1 8 98  2.00000000E-04
  1 8 99  2.00000000E-04
  1 8 100  2.00000000E-04
  1 8 101  2.00000000E-04
  1 8 102  2.00000000E-04
  1 8 103  2.00000000E-04
  1 8 104  2.00000000E-04
  1 8 105  2.00000000E-04
  1 8 106  2.00000000E-04
  1 8 107  2.00000000E-04
  1 8 108  2.00000000E-04
  1 8 109  2.00000000E-04
  1 8 110  2.00000000E-04
  1 8 149  2.00000000E-04
  1 8 150  2.00000000E-04
  1 8 188  2.00000000E-04
  1 8 189  2.00000000E-04
  1 8 190  2.00000000E-04
  1 8 191  2.00000000E-04
  1 8 192  2.00000000E-04
  1 8 193  2.00000000E-04
  1 8 194  2.00000000E-04
  1 8 195  2.00000000E-04
  1 8 196  2.00000000E-04
  1 8 197  2.00000000E-04
  1 8 198  2.00000000E-04
  1 8 199  2.00000000E-04
  1 8 200  2.00000000E-04
  1 8 201  2.00000000E-04
  1 8 202  2.00000000E-04
  1 8 203  2.00000000E-04
  1 8 204  2.00000000E-04
  1 8 205  2.00000000E-04
  1 8 206  2.00000000E-04
  1 8 207  2.00000000E-04
  1 8 208  2.00000000E-04
  1 8 209  2.00000000E-04
  1 8 210  2.00000000E-04
  1 8 211  2.00000000E-04
  1 9 71  2.00000000E-04
  1 9 72  2.00000000E-04
  1 9 74  2.00000000E-04
  1 9 75  2.00000000E-04
  1 9 76  2.00000000E-04
  1 9 77  2.00000000E-04
  1 9 78  2.00000000E-04
  1 9 79  2.00000000E-04
  1 9 80  2.00000000E-04
  1 9 81  2.00000000E-04
  1 9 82  2.00000000E-04
  1 9 83  2.00000000E-04
  1 9 84  2.00000000E-04
  1 9 85  2.00000000E-04
  1 9 86  2.00000000E-04
  1 9 87  2.00000000E-04
  1 9 88  2.00000000E-04
  1 9 89  2.00000000E-04
  1 9 90  2.00000000E-04
  1 9 91  2.00000000E-04
  1 9 92  2.00000000E-04
  1 9 93  2.00000000E-04
  1 9 94  2.00000000E-04
  1 9 95  2.00000000E-04
  1 9 96  2.00000000E-04
  1 9 97  2.00000000E-04
  1 9 98  2.00000000E-04
  1 9 99  2.00000000E-04
  1 9 100  2.00000000E-04
  1 9 101  2.00000000E-04
  1 9 102  2.00000000E-04
  1 9 103  2.00000000E-04
  1 9 104  2.00000000E-04
  1 9 105  2.00000000E-04
  1 9 106  2.00000000E-04
  1 9 107  2.00000000E-04
  1 9 108  2.00000000E-04
  1 9 109  2.00000000E-04
  1 9 110  2.00000000E-04
  1 9 111  2.00000000E-04
  1 9 112  2.00000000E-04
  1 9 148  2.00000000E-04
  1 9 149  2.00000000E-04
  1 9 150  2.00000000E-04
  1 9 151  2.00000000E-04
  1 9 152  2.00000000E-04
  1 9 153  2.00000000E-04
  1 9 154  2.00000000E-04
  1 9 155  2.00000000E-04
  1 9 156  2.00000000E-04
  1 9 157  2.00000000E-04
  1 9 158  2.00000000E-04
  1 9 159  2.00000000E-04
  1 9 160  2.00000000E-04
  1 9 187  2.00000000E-04
  1 9 188  2.00000000E-04
  1 9 189  2.00000000E-04
  1 9 190  2.00000000E-04
  1 9 191  2.00000000E-04
  1 9 192  2.00000000E-04
  1 9 193  2.00000000E-04
  1 9 194  2.00000000E-04
  1 9 195  2.00000000E-04
  1 9 196  2.00000000E-04
  1 9 197  2.00000000E-04
  1 9 198  2.00000000E-04
  1 9 199  2.00000000E-04
  1 9 200  2.00000000E-04
  1 9 201  2.00000000E-04
  1 9 202  2.00000000E-04
  1 9 203  2.00000000E-04
  1 9 204  2.00000000E-04
  1 9 205  2.00000000E-04
  1 9 206  2.00000000E-04
  1 9 207  2.00000000E-04
  1 9 208  2.00000000E-04
  1 9 209  2.00000000E-04
  1 9 210  2.00000000E-04
  1 9 211  2.00000000E-04
  1 9 212  2.00000000E-04
  1 9 213  2.00000000E-04
  1 9 215  2.00000000E-04
  1 10 70  2.00000000E-04
  1 10 71  2.00000000E-04
  1 10 72  2.00000000E-04
  1 10 73  2.00000000E-04
  1 10 74  2.00000000E-04
  1 10 75  2.00000000E-04
  1 10 76  2.00000000E-04
  1 10 77  2.00000000E-04
  1 10 78  2.00000000E-04
  1 10 79  2.00000000E-04
  1 10 80  2.00000000E-04
  1 10 81  2.00000000E-04
  1 10 82  2.00000000E-04
  1 10 83  2.00000000E-04
  1 10 84  2.00000000E-04
  1 10 85  2.00000000E-04
  1 10 86  2.00000000E-04
  1 10 87  2.00000000E-04
  1 10 88  2.00000000E-04
  1 10 89  2.00000000E-04
  1 10 90  2.00000000E-04
  1 10 91  2.00000000E-04
  1 10 92  2.00000000E-04
  1 10 93  2.00000000E-04
  1 10 94  2.00000000E-04
  1 10 95  2.00000000E-04
  1 10 96  2.00000000E-04
  1 10 97  2.00000000E-04
  1 10 98  2.00000000E-04
  1 10 99  2.00000000E-04
  1 10 100  2.00000000E-04
  1 10 101  2.00000000E-04
  1 10 102  2.00000000E-04
  1 10 103  2.00000000E-04
  1 10 104  2.00000000E-04
  1 10 105  2.00000000E-04
  1 10 106  2.00000000E-04
  1 10 107  2.00000000E-04
  1 10 108  2.00000000E-04
  1 10 109  2.00000000E-04
  1 10 110  2.00000000E-04
  1 10 111  2.00000000E-04
  1 10 112  2.00000000E-04
  1 10 113  2.00000000E-04
  1 10 145  2.00000000E-04
  1 10 146  2.00000000E-04
  1 10 147  2.00000000E-04
  1 10 148  2.00000000E-04
  1 10 149  2.00000000E-04
  1 10 150  2.00000000E-04
  1 10 151  2.00000000E-04
  1 10 152  2.00000000E-04
  1 10 153  2.00000000E-04
  1 10 154  2.00000000E-04
  1 10 155  2.00000000E-04
  1 10 156  2.00000000E-04
  1 10 157  2.00000000E-04
  1 10 158  2.00000000E-04
  1 10 159  2.00000000E-04
  1 10 160  2.00000000E-04
  1 10 161  2.00000000E-04
  1 10 187  2.00000000E-04
  1 10 188  2.00000000E-04
  1 10 189  2.00000000E-04
  1 10 190  2.00000000E-04
  1 10 191  2.00000000E-04
  1 10 192  2.00000000E-04
  1 10 193  2.00000000E-04
  1 10 194  2.00000000E-04
  1 10 195  2.00000000E-04
  1 10 196  2.00000000E-04
  1 10 197  2.00000000E-04
  1 10 198  2.00000000E-04
  1 10 199  2.00000000E-04
  1 10 200  2.00000000E-04
  1 10 201  2.00000000E-04
  1 10 202  2.00000000E-04
  1 10 203  2.00000000E-04
  1 10 204  2.00000000E-04
  1 10 205  2.00000000E-04
  1 10 206  2.00000000E-04
  1 10 207  2.00000000E-04
  1 10 208  2.00000000E-04
  1 10 209  2.00000000E-04
  1 10 210  2.00000000E-04
  1 10 211  2.00000000E-04
  1 10 212  2.00000000E-04
  1 10 213  2.00000000E-04
  1 10 214  2.00000000E-04
  1 10 215  2.00000000E-04
  1 10 216  2.00000000E-04
  1 11 69  2.00000000E-04
  1 11 70  2.00000000E-04
  1 11 71  2.00000000E-04
  1 11 72  2.00000000E-04
  1 11 73  2.00000000E-04
  1 11 74  2.00000000E-04
  1 11 75  2.00000000E-04
  1 11 76  2.00000000E-04
  1 11 77  2.00000000E-04
  1 11 78  2.00000000E-04
  1 11 79  2.00000000E-04
  1 11 80  2.00000000E-04
  1 11 81  2.00000000E-04
  1 11 82  2.00000000E-04
  1 11 83  2.00000000E-04
  1 11 84  2.00000000E-04
  1 11 85  2.00000000E-04
  1 11 86  2.00000000E-04
  1 11 87  2.00000000E-04
  1 11 88  2.00000000E-04
  1 11 89  2.00000000E-04
  1 11 90  2.00000000E-04
  1 11 91  2.00000000E-04
  1 11 92  2.00000000E-04
  1 11 93  2.00000000E-04
  1 11 94  2.00000000E-04
  1 11 95  2.00000000E-04
  1 11 96  2.00000000E-04
  1 11 97  2.00000000E-04
  1 11 98  2.00000000E-04
  1 11 99  2.00000000E-04
  1 11 100  2.00000000E-04
  1 11 101  2.00000000E-04
  1 11 102  2.00000000E-04
  1 11 103  2.00000000E-04
  1 11 104  2.00000000E-04
  1 11 105  2.00000000E-04
  1 11 106  2.00000000E-04
  1 11 107  2.00000000E-04
  1 11 108  2.00000000E-04
  1 11 109  2.00000000E-04
  1 11 110  2.00000000E-04
  1 11 111  2.00000000E-04
  1 11 112  2.00000000E-04
  1 11 113  2.00000000E-04
  1 11 114  2.00000000E-04
  1 11 115  2.00000000E-04
  1 11 116  2.00000000E-04
  1 11 143  2.00000000E-04
  1 11 144  2.00000000E-04
  1 11 145  2.00000000E-04
  1 11 146  2.00000000E-04
  1 11 147  2.00000000E-04
  1 11 148  2.00000000E-04
  1 11 149  2.00000000E-04
  1 11 150  2.00000000E-04
  1 11 151  2.00000000E-04
  1 11 152  2.00000000E-04
  1 11 153  2.00000000E-04
  1 11 154  2.00000000E-04
  1 11 155  2.00000000E-04
  1 11 156  2.00000000E-04
  1 11 157  2.00000000E-04
  1 11 158  2.00000000E-04
  1 11 159  2.00000000E-04
  1 11 160  2.00000000E-04
  1 11 161  2.00000000E-04
  1 11 162  2.00000000E-04
  1 11 163  2.00000000E-04
  1 11 186  2.00000000E-04
  1 11 187  2.00000000E-04
  1 11 188  2.00000000E-04
  1 11 189  2.00000000E-04
  1 11 190  2.00000000E-04
  1 11 191  2.00000000E-04
  1 11 192  2.00000000E-04
  1 11 193  2.00000000E-04
  1 11 194  2.00000000E-04
  1 11 195  2.00000000E-04
  1 11 196  2.00000000E-04
  1 11 197  2.00000000E-04
  1 11 198  2.00000000E-04
  1 11 199  2.00000000E-04
  1 11 200  2.00000000E-04
  1 11 201  2.00000000E-04
  1 11 202  2.00000000E-04
  1 11 203  2.00000000E-04
  1 11 204  2.00000000E-04
  1 11 205  2.00000000E-04
  1 11 206  2.00000000E-04
  1 11 207  2.00000000E-04
  1 11 208  2.00000000E-04
  1 11 209  2.00000000E-04
  1 11 210  2.00000000E-04
  1 11 211  2.00000000E-04
  1 11 212  2.00000000E-04
  1 11 213  2.00000000E-04
  1 11 214  2.00000000E-04
  1 11 215  2.00000000E-04
  1 11 216  2.00000000E-04
  1 11 230  2.00000000E-04
  1 11 231  2.00000000E-04
  1 12 68  2.00000000E-04
  1 12 69  2.00000000E-04
  1 12 70  2.00000000E-04
  1 12 71  2.00000000E-04
  1 12 72  2.00000000E-04
  1 12 73  2.00000000E-04
  1 12 74  2.00000000E-04
  1 12 75  2.00000000E-04
  1 12 76  2.00000000E-04
  1 12 77  2.00000000E-04
  1 12 78  2.00000000E-04
  1 12 79  2.00000000E-04
  1 12 80  2.00000000E-04
  1 12 81  2.00000000E-04
  1 12 82  2.00000000E-04
  1 12 83  2.00000000E-04
  1 12 84  2.00000000E-04
  1 12 85  2.00000000E-04
  1 12 86  2.00000000E-04
  1 12 87  2.00000000E-04
  1 12 88  2.00000000E-04
  1 12 89  2.00000000E-04
  1 12 90  2.00000000E-04
  1 12 91  2.00000000E-04
  1 12 92  2.00000000E-04
  1 12 93  2.00000000E-04
  1 12 94  2.00000000E-04
  1 12 95  2.00000000E-04
  1 12 96  2.00000000E-04
  1 12 97  2.00000000E-04
  1 12 98  2.00000000E-04
  1 12 99  2.00000000E-04
  1 12 100  2.00000000E-04
  1 12 101  2.00000000E-04
  1 12 102  2.00000000E-04
  1 12 103  2.00000000E-04
  1 12 104  2.00000000E-04
  1 12 105  2.00000000E-04
  1 12 106  2.00000000E-04
  1 12 107  2.00000000E-04
  1 12 108  2.00000000E-04
  1 12 109  2.00000000E-04
  1 12 110  2.00000000E-04
  1 12 111  2.00000000E-04
  1 12 112  2.00000000E-04
  1 12 113  2.00000000E-04
  1 12 114  2.00000000E-04
  1 12 115  2.00000000E-04
  1 12 116  2.00000000E-04
  1 12 117  2.00000000E-04
  1 12 118  2.00000000E-04
  1 12 141  2.00000000E-04
  1 12 142  2.00000000E-04
  1 12 143  2.00000000E-04
  1 12 144  2.00000000E-04
  1 12 145  2.00000000E-04
  1 12 146  2.00000000E-04
  1 12 147  2.00000000E-04
  1 12 148  2.00000000E-04
  1 12 149  2.00000000E-04
  1 12 150  2.00000000E-04
  1 12 151  2.00000000E-04
  1 12 152  2.00000000E-04
  1 12 153  2.00000000E-04
  1 12 154  2.00000000E-04
  1 12 155  2.00000000E-04
  1 12 156  2.00000000E-04
  1 12 157  2.00000000E-04
  1 12 158  2.00000000E-04
  1 12 159  2.00000000E-04
  1 12 160  2.00000000E-04
  1 12 161  2.00000000E-04
  1 12 162  2.00000000E-04
  1 12 163  2.00000000E-04
  1 12 185  2.00000000E-04
  1 12 186  2.00000000E-04
  1 12 187  2.00000000E-04
  1 12 188  2.00000000E-04
  1 12 189  2.00000000E-04
  1 12 190  2.00000000E-04
  1 12 191  2.00000000E-04
  1 12 192  2.00000000E-04
  1 12 193  2.00000000E-04
  1 12 194  2.00000000E-04
  1 12 195  2.00000000E-04
  1 12 196  2.00000000E-04
  1 12 197  2.00000000E-04
  1 12 198  2.00000000E-04
  1 12 199  2.00000000E-04
  1 12 200  2.00000000E-04
  1 12 201  2.00000000E-04
  1 12 202  2.00000000E-04
  1 12 203  2.00000000E-04
  1 12 204  2.00000000E-04
  1 12 205  2.00000000E-04
  1 12 206  2.00000000E-04
  1 12 207  2.00000000E-04
  1 12 208  2.00000000E-04
  1 12 209  2.00000000E-04
  1 12 210  2.00000000E-04
  1 12 211  2.00000000E-04
  1 12 212  2.00000000E-04
  1 12 213  2.00000000E-04
  1 12 214  2.00000000E-04
  1 12 215  2.00000000E-04
  1 12 216  2.00000000E-04
  1 12 217  2.00000000E-04
  1 12 228  2.00000000E-04
  1 12 229  2.00000000E-04
  1 12 230  2.00000000E-04
  1 12 231  2.00000000E-04
  1 13 64  2.00000000E-04
  1 13 67  2.00000000E-04
  1 13 68  2.00000000E-04
  1 13 69  2.00000000E-04
  1 13 70  2.00000000E-04
  1 13 71  2.00000000E-04
  1 13 72  2.00000000E-04
  1 13 73  2.00000000E-04
  1 13 74  2.00000000E-04
  1 13 75  2.00000000E-04
  1 13 76  2.00000000E-04
  1 13 77  2.00000000E-04
  1 13 78  2.00000000E-04
  1 13 79  2.00000000E-04
  1 13 80  2.00000000E-04
  1 13 81  2.00000000E-04
  1 13 82  2.00000000E-04
  1 13 83  2.00000000E-04
  1 13 84  2.00000000E-04
  1 13 85  2.00000000E-04
  1 13 86  2.00000000E-04
  1 13 87  2.00000000E-04
  1 13 88  2.00000000E-04
  1 13 89  2.00000000E-04
  1 13 90  2.00000000E-04
  1 13 91  2.00000000E-04
  1 13 92  2.00000000E-04
  1 13 93  2.00000000E-04
  1 13 94  2.00000000E-04
  1 13 95  2.00000000E-04
  1 13 96  2.00000000E-04
  1 13 97  2.00000000E-04
  1 13 98  2.00000000E-04
  1 13 99  2.00000000E-04
  1 13 100  2.00000000E-04
  1 13 101  2.00000000E-04
  1 13 102  2.00000000E-04
  1 13 103  2.00000000E-04
  1 13 104  2.00000000E-04
  1 13 105  2.00000000E-04
  1 13 106  2.00000000E-04
  1 13 107  2.00000000E-04
  1 13 108  2.00000000E-04
  1 13 109  2.00000000E-04
  1 13 110  2.00000000E-04
  1 13 111  2.00000000E-04
  1 13 112  2.00000000E-04
  1 13 113  2.00000000E-04
  1 13 114  2.00000000E-04
  1 13 115  2.00000000E-04
  1 13 116  2.00000000E-04
  1 13 117  2.00000000E-04
  1 13 118  2.00000000E-04
  1 13 119  2.00000000E-04
  1 13 120  2.00000000E-04
  1 13 135  2.00000000E-04
  1 13 140  2.00000000E-04
  1 13 141  2.00000000E-04
  1 13 142  2.00000000E-04
  1 13 143  2.00000000E-04
  1 13 144  2.00000000E-04
  1 13 145  2.00000000E-04
  1 13 146  2.00000000E-04
  1 13 147  2.00000000E-04
  1 13 148  2.00000000E-04
  1 13 149  2.00000000E-04
  1 13 150  2.00000000E-04
  1 13 151  2.00000000E-04
  1 13 152  2.00000000E-04
  1 13 153  2.00000000E-04
  1 13 154  2.00000000E-04
  1 13 155  2.00000000E-04
  1 13 156  2.00000000E-04
  1 13 157  2.00000000E-04
  1 13 158  2.00000000E-04
  1 13 159  2.00000000E-04
  1 13 160  2.00000000E-04
  1 13 161  2.00000000E-04
  1 13 162  2.00000000E-04
  1 13 163  2.00000000E-04
  1 13 164  2.00000000E-04
  1 13 185  2.00000000E-04
  1 13 186  2.00000000E-04
  1 13 187  2.00000000E-04
  1 13 188  2.00000000E-04
  1 13 189  2.00000000E-04
  1 13 190  2.00000000E-04
  1 13 191  2.00000000E-04
  1 13 192  2.00000000E-04
  1 13 193  2.00000000E-04
  1 13 194  2.00000000E-04
  1 13 195  2.00000000E-04
  1 13 196  2.00000000E-04
  1 13 197  2.00000000E-04
  1 13 198  2.00000000E-04
  1 13 199  2.00000000E-04
  1 13 200  2.00000000E-04
  1 13 201  2.00000000E-04
  1 13 202  2.00000000E-04
  1 13 203  2.00000000E-04
  1 13 204  2.00000000E-04
  1 13 205  2.00000000E-04
  1 13 206  2.00000000E-04
  1 13 207  2.00000000E-04
  1 13 208  2.00000000E-04
  1 13 209  2.00000000E-04
  1 13 210  2.00000000E-04
  1 13 211  2.00000000E-04
  1 13 212  2.00000000E-04
  1 13 213  2.00000000E-04
  1 13 214  2.00000000E-04
  1 13 215  2.00000000E-04
  1 13 216  2.00000000E-04
  1 13 217  2.00000000E-04
  1 13 218  2.00000000E-04
  1 13 226  2.00000000E-04
  1 13 227  2.00000000E-04
  1 13 228  2.00000000E-04
  1 13 229  2.00000000E-04
  1 13 230  2.00000000E-04
  1 13 231  2.00000000E-04
  1 13 232  2.00000000E-04
  1 13 233  2.00000000E-04
  1 13 234  2.00000000E-04
  1 14 64  2.00000000E-04
  1 14 65  2.00000000E-04
  1 14 66  2.00000000E-04
  1 14 67  2.00000000E-04
  1 14 68  2.00000000E-04
  1 14 69  2.00000000E-04
  1 14 70  2.00000000E-04
  1 14 71  2.00000000E-04
  1 14 72  2.00000000E-04
  1 14 73  2.00000000E-04
  1 14 74  2.00000000E-04
  1 14 75  2.00000000E-04
  1 14 76  2.00000000E-04
  1 14 77  2.00000000E-04
  1 14 78  2.00000000E-04
  1 14 79  2.00000000E-04
  1 14 80  2.00000000E-04
  1 14 81  2.00000000E-04
  1 14 82  2.00000000E-04
  1 14 83  2.00000000E-04
  1 14 84  2.00000000E-04
  1 14 85  2.00000000E-04
  1 14 86  2.00000000E-04
  1 14 87  2.00000000E-04
  1 14 88  2.00000000E-04
  1 14 89  2.00000000E-04
  1 14 90  2.00000000E-04
  1 14 91  2.00000000E-04
  1 14 92  2.00000000E-04
  1 14 93  2.00000000E-04
  1 14 94  2.00000000E-04
  1 14 95  2.00000000E-04
  1 14 96  2.00000000E-04
  1 14 97  2.00000000E-04
  1 14 98  2.00000000E-04
  1 14 99  2.00000000E-04
  1 14 100  2.00000000E-04
  1 14 101  2.00000000E-04
  1 14 102  2.00000000E-04
  1 14 103  2.00000000E-04
  1 14 104  2.00000000E-04
  1 14 105  2.00000000E-04
  1 14 106  2.00000000E-04
  1 14 107  2.00000000E-04
  1 14 108  2.00000000E-04
  1 14 109  2.00000000E-04
  1 14 110  2.00000000E-04
  1 14 111  2.00000000E-04
  1 14 112  2.00000000E-04
  1 14 113  2.00000000E-04
  1 14 114  2.00000000E-04
  1 14 115  2.00000000E-04
  1 14 116  2.00000000E-04
  1 14 117  2.00000000E-04
  1 14 118  2.00000000E-04
  1 14 119  2.00000000E-04
  1 14 120  2.00000000E-04
  1 14 121  2.00000000E-04
  1 14 122  2.00000000E-04
  1 14 134  2.00000000E-04
  1 14 135  2.00000000E-04
  1 14 136  2.00000000E-04
  1 14 137  2.00000000E-04
  1 14 138  2.00000000E-04
  1 14 139  2.00000000E-04
  1 14 140  2.00000000E-04
  1 14 141  2.00000000E-04
  1 14 142  2.00000000E-04
  1 14 143  2.00000000E-04
  1 14 144  2.00000000E-04
  1 14 145  2.00000000E-04
  1 14 146  2.00000000E-04
  1 14 147  2.00000000E-04
  1 14 148  2.00000000E-04
  1 14 149  2.00000000E-04
  1 14 150  2.00000000E-04
  1 14 151  2.00000000E-04
  1 14 152  2.00000000E-04
  1 14 153  2.00000000E-04
  1 14 154  2.00000000E-04
  1 14 155  2.00000000E-04
  1 14 156  2.00000000E-04
  1 14 157  2.00000000E-04
  1 14 158  2.00000000E-04
  1 14 159  2.00000000E-04
  1 14 160  2.00000000E-04
  1 14 161  2.00000000E-04
  1 14 162  2.00000000E-04
  1 14 163  2.00000000E-04
  1 14 164  2.00000000E-04
  1 14 184  2.00000000E-04
  1 14 185  2.00000000E-04
  1 14 186  2.00000000E-04
  1 14 187  2.00000000E-04
  1 14 188  2.00000000E-04
  1 14 189  2.00000000E-04
  1 14 190  2.00000000E-04
  1 14 191  2.00000000E-04
  1 14 192  2.00000000E-04
  1 14 193  2.00000000E-04
  1 14 194  2.00000000E-04
  1 14 195  2.00000000E-04
  1 14 196  2.00000000E-04
  1 14 197  2.00000000E-04
  1 14 198  2.00000000E-04
  1 14 199  2.00000000E-04
  1 14 200  2.00000000E-04
  1 14 201  2.00000000E-04
  1 14 202  2.00000000E-04
  1 14 203  2.00000000E-04
  1 14 204  2.00000000E-04
  1 14 205  2.00000000E-04
  1 14 206  2.00000000E-04
  1 14 207  2.00000000E-04
  1 14 208  2.00000000E-04
  1 14 209  2.00000000E-04
  1 14 210  2.00000000E-04
  1 14 211  2.00000000E-04
  1 14 212  2.00000000E-04
  1 14 213  2.00000000E-04
  1 14 214  2.00000000E-04
  1 14 215  2.00000000E-04
  1 14 216  2.00000000E-04
  1 14 217  2.00000000E-04
  1 14 218  2.00000000E-04
  1 14 219  2.00000000E-04
  1 14 220  2.00000000E-04
  1 14 223  2.00000000E-04
  1 14 224  2.00000000E-04
  1 14 225  2.00000000E-04
  1 14 226  2.00000000E-04
  1 14 227  2.00000000E-04
  1 14 228  2.00000000E-04
  1 14 229  2.00000000E-04
  1 14 230  2.00000000E-04
  1 14 231  2.00000000E-04
  1 14 232  2.00000000E-04
  1 14 233  2.00000000E-04
  1 14 234  2.00000000E-04
  1 14 235  2.00000000E-04
  1 14 236  2.00000000E-04
  1 15 63  2.00000000E-04
  1 15 64  2.00000000E-04
  1 15 65  2.00000000E-04
  1 15 66  2.00000000E-04
  1 15 67  2.00000000E-04
  1 15 68  2.00000000E-04
  1 15 69  2.00000000E-04
  1 15 70  2.00000000E-04
  1 15 71  2.00000000E-04
  1 15 72  2.00000000E-04
  1 15 73  2.00000000E-04
  1 15 74  2.00000000E-04
  1 15 75  2.00000000E-04
  1 15 76  2.00000000E-04
  1 15 77  2.00000000E-04
  1 15 78  2.00000000E-04
  1 15 79  2.00000000E-04
  1 15 80  2.00000000E-04
  1 15 81  2.00000000E-04
  1 15 82  2.00000000E-04
  1 15 83  2.00000000E-04
  1 15 84  2.00000000E-04
  1 15 85  2.00000000E-04
  1 15 86  2.00000000E-04
  1 15 87  2.00000000E-04
  1 15 88  2.00000000E-04
  1 15 89  2.00000000E-04
  1 15 90  2.00000000E-04
  1 15 91  2.00000000E-04
  1 15 92  2.00000000E-04
  1 15 93  2.00000000E-04
  1 15 94  2.00000000E-04
  1 15 95  2.00000000E-04
  1 15 96  2.00000000E-04
  1 15 97  2.00000000E-04
  1 15 98  2.00000000E-04
  1 15 99  2.00000000E-04
  1 15 100  2.00000000E-04
  1 15 101  2.00000000E-04
  1 15 102  2.00000000E-04
  1 15 103  2.00000000E-04
  1 15 104  2.00000000E-04
  1 15 105  2.00000000E-04
  1 15 106  2.00000000E-04
  1 15 107  2.00000000E-04
  1 15 108  2.00000000E-04
  1 15 109  2.00000000E-04
  1 15 110  2.00000000E-04
  1 15 111  2.00000000E-04
  1 15 112  2.00000000E-04
  1 15 113  2.00000000E-04
  1 15 114  2.00000000E-04
  1 15 115  2.00000000E-04
  1 15 116  2.00000000E-04
  1 15 117  2.00000000E-04
  1 15 118  2.00000000E-04
  1 15 119  2.00000000E-04
  1 15 120  2.00000000E-04
  1 15 121  2.00000000E-04
  1 15 122  2.00000000E-04
  1 15 123  2.00000000E-04
  1 15 133  2.00000000E-04
  1 15 134  2.00000000E-04
  1 15 135  2.00000000E-04
  1 15 136  2.00000000E-04
  1 15 137  2.00000000E-04
  1 15 138  2.00000000E-04
  1 15 139  2.00000000E-04
  1 15 140  2.00000000E-04
  1 15 141  2.00000000E-04
  1 15 142  2.00000000E-04
  1 15 143  2.00000000E-04
  1 15 144  2.00000000E-04
  1 15 145  2.00000000E-04
  1 15 146  2.00000000E-04
  1 15 147  2.00000000E-04
  1 15 148  2.00000000E-04
  1 15 149  2.00000000E-04
  1 15 150  2.00000000E-04
  1 15 151  2.00000000E-04
  1 15 152  2.00000000E-04
  1 15 153  2.00000000E-04
  1 15 154  2.00000000E-04
  1 15 155  2.00000000E-04
  1 15 156  2.00000000E-04
  1 15 157  2.00000000E-04
  1 15 158  2.00000000E-04
  1 15 159  2.00000000E-04
  1 15 160  2.00000000E-04
  1 15 161  2.00000000E-04
  1 15 162  2.00000000E-04
  1 15 163  2.00000000E-04
  1 15 164  2.00000000E-04
  1 15 165  2.00000000E-04
  1 15 183  2.00000000E-04
  1 15 184  2.00000000E-04
  1 15 185  2.00000000E-04
  1 15 186  2.00000000E-04
  1 15 187  2.00000000E-04
  1 15 188  2.00000000E-04
  1 15 189  2.00000000E-04
  1 15 190  2.00000000E-04
  1 15 191  2.00000000E-04
  1 15 192  2.00000000E-04
  1 15 193  2.00000000E-04
  1 15 194  2.00000000E-04
  1 15 195  2.00000000E-04
  1 15 196  2.00000000E-04
  1 15 197  2.00000000E-04
  1 15 198  2.00000000E-04
  1 15 199  2.00000000E-04
  1 15 200  2.00000000E-04
  1 15 201  2.00000000E-04
  1 15 202  2.00000000E-04
  1 15 203  2.00000000E-04
  1 15 204  2.00000000E-04
  1 15 205  2.00000000E-04
  1 15 206  2.00000000E-04
  1 15 207  2.00000000E-04
  1 15 208  2.00000000E-04
  1 15 209  2.00000000E-04
  1 15 210  2.00000000E-04
  1 15 211  2.00000000E-04
  1 15 212  2.00000000E-04
  1 15 213  2.00000000E-04
  1 15 214  2.00000000E-04
  1 15 215  2.00000000E-04
  1 15 216  2.00000000E-04
  1 15 217  2.00000000E-04
  1 15 218  2.00000000E-04
  1 15 219  2.00000000E-04
  1 15 220  2.00000000E-04
  1 15 221  2.00000000E-04
  1 15 222  2.00000000E-04
  1 15 223  2.00000000E-04
  1 15 224  2.00000000E-04
  1 15 225  2.00000000E-04
  1 15 226  2.00000000E-04
  1 15 227  2.00000000E-04
  1 15 228  2.00000000E-04
  1 15 229  2.00000000E-04
  1 15 230  2.00000000E-04
  1 15 231  2.00000000E-04
  1 15 232  2.00000000E-04
  1 15 233  2.00000000E-04
  1 15 234  2.00000000E-04
  1 15 235  2.00000000E-04
  1 15 236  2.00000000E-04
  1 15 237  2.00000000E-04
  1 15 238  2.00000000E-04
  1 16 63  2.00000000E-04
  1 16 64  2.00000000E-04
  1 16 65  2.00000000E-04
  1 16 66  2.00000000E-04
  1 16 67  2.00000000E-04
  1 16 68  2.00000000E-04
  1 16 69  2.00000000E-04
  1 16 70  2.00000000E-04
  1 16 71  2.00000000E-04
  1 16 72  2.00000000E-04
  1 16 73  2.00000000E-04
  1 16 74  2.00000000E-04
  1 16 75  2.00000000E-04
  1 16 76  2.00000000E-04
  1 16 77  2.00000000E-04
  1 16 78  2.00000000E-04
  1 16 79  2.00000000E-04
  1 16 80  2.00000000E-04
  1 16 81  2.00000000E-04
  1 16 82  2.00000000E-04
  1 16 83  2.00000000E-04
  1 16 84  2.00000000E-04
  1 16 85  2.00000000E-04
  1 16 86  2.00000000E-04
  1 16 87  2.00000000E-04
  1 16 88  2.00000000E-04
  1 16 89  2.00000000E-04
  1 16 90  2.00000000E-04
  1 16 91  2.00000000E-04
  1 16 92  2.00000000E-04
  1 16 93  2.00000000E-04
  1 16 94  2.00000000E-04
  1 16 95  2.00000000E-04
  1 16 96  2.00000000E-04
  1 16 97  2.00000000E-04
  1 16 98  2.00000000E-04
  1 16 99  2.00000000E-04
  1 16 100  2.00000000E-04
  1 16 101  2.00000000E-04
  1 16 102  2.00000000E-04
  1 16 103  2.00000000E-04
  1 16 104  2.00000000E-04
  1 16 105  2.00000000E-04
  1 16 106  2.00000000E-04
  1 16 107  2.00000000E-04
  1 16 108  2.00000000E-04
  1 16 109  2.00000000E-04
  1 16 110  2.00000000E-04
  1 16 111  2.00000000E-04
  1 16 112  2.00000000E-04
  1 16 113  2.00000000E-04
  1 16 114  2.00000000E-04
  1 16 115  2.00000000E-04
  1 16 116  2.00000000E-04
  1 16 117  2.00000000E-04
  1 16 118  2.00000000E-04
  1 16 119  2.00000000E-04
  1 16 120  2.00000000E-04
  1 16 121  2.00000000E-04
  1 16 122  2.00000000E-04
  1 16 123  2.00000000E-04
  1 16 124  2.00000000E-04
  1 16 125  2.00000000E-04
  1 16 126  2.00000000E-04
  1 16 127  2.00000000E-04
  1 16 132  2.00000000E-04