# File generated by Flopy version 3.3.6 on 07/14/2023 at 11:25:16.
BEGIN options
END options

BEGIN dimensions
  MAXBOUND  2
END dimensions

BEGIN period  1
  1 55 72    -318.13000000
  1 29 191    -150.00000000
END period  1

