BEGIN OPTIONS
END OPTIONS

BEGIN GRIDDATA
  STRT LAYERED
    OPEN/CLOSE ../2547c1e6-9b9f-4160-a079-425394d08fa1/model.ic_STRT_1.txt FACTOR 1.0
    OPEN/CLOSE ../2547c1e6-9b9f-4160-a079-425394d08fa1/model.ic_STRT_2.txt FACTOR 1.0
END GRIDDATA
