BEGIN OPTIONS
  LENGTH_UNITS METERS
  XORIGIN 0.0
  YORIGIN 0.0
  ANGROT 0.0
END OPTIONS

BEGIN DIMENSIONS
  NLAY 2
  NROW 100
  NCOL 250
END DIMENSIONS

BEGIN GRIDDATA
  DELR
    CONSTANT 20.0
  DELC
    CONSTANT 20.0
  TOP
    CONSTANT 15.0
  BOTM LAYERED
    CONSTANT 7.5
    CONSTANT 0.0
  IDOMAIN LAYERED
    OPEN/CLOSE ../698b67f1-f70b-4153-aece-b690cff28941/model.dis_IDOMAIN_1.txt FACTOR 1
    OPEN/CLOSE ../698b67f1-f70b-4153-aece-b690cff28941/model.dis_IDOMAIN_2.txt FACTOR 1
END GRIDDATA
