BEGIN OPTIONS
  AUXILIARY CELLGRP
  BOUNDNAMES
  PRINT_INPUT
  PRINT_FLOWS
  SAVE_FLOWS
END OPTIONS

BEGIN DIMENSIONS
  MAXBOUND 344
END DIMENSIONS

BEGIN PERIOD 1
  OPEN/CLOSE ../028aa7e6-8fba-4eec-b7ff-24e0a766724f/model.riv_001.txt
END PERIOD

BEGIN PERIOD 2
  OPEN/CLOSE ../028aa7e6-8fba-4eec-b7ff-24e0a766724f/model.riv_002.txt
END PERIOD

BEGIN PERIOD 3
  OPEN/CLOSE ../028aa7e6-8fba-4eec-b7ff-24e0a766724f/model.riv_003.txt
END PERIOD

BEGIN PERIOD 4
  OPEN/CLOSE ../028aa7e6-8fba-4eec-b7ff-24e0a766724f/model.riv_004.txt
END PERIOD

BEGIN PERIOD 5
  OPEN/CLOSE ../028aa7e6-8fba-4eec-b7ff-24e0a766724f/model.riv_005.txt
END PERIOD

BEGIN PERIOD 6
  OPEN/CLOSE ../028aa7e6-8fba-4eec-b7ff-24e0a766724f/model.riv_006.txt
END PERIOD

BEGIN PERIOD 7
  OPEN/CLOSE ../028aa7e6-8fba-4eec-b7ff-24e0a766724f/model.riv_007.txt
END PERIOD

BEGIN PERIOD 8
  OPEN/CLOSE ../028aa7e6-8fba-4eec-b7ff-24e0a766724f/model.riv_008.txt
END PERIOD

BEGIN PERIOD 9
  OPEN/CLOSE ../028aa7e6-8fba-4eec-b7ff-24e0a766724f/model.riv_009.txt
END PERIOD

BEGIN PERIOD 10
  OPEN/CLOSE ../028aa7e6-8fba-4eec-b7ff-24e0a766724f/model.riv_010.txt
END PERIOD

BEGIN PERIOD 11
  OPEN/CLOSE ../028aa7e6-8fba-4eec-b7ff-24e0a766724f/model.riv_011.txt
END PERIOD

BEGIN PERIOD 12
  OPEN/CLOSE ../028aa7e6-8fba-4eec-b7ff-24e0a766724f/model.riv_012.txt
END PERIOD

BEGIN PERIOD 13
  OPEN/CLOSE ../028aa7e6-8fba-4eec-b7ff-24e0a766724f/model.riv_013.txt
END PERIOD

BEGIN PERIOD 14
  OPEN/CLOSE ../028aa7e6-8fba-4eec-b7ff-24e0a766724f/model.riv_014.txt
END PERIOD

BEGIN PERIOD 15
  OPEN/CLOSE ../028aa7e6-8fba-4eec-b7ff-24e0a766724f/model.riv_015.txt
END PERIOD

BEGIN PERIOD 16
  OPEN/CLOSE ../028aa7e6-8fba-4eec-b7ff-24e0a766724f/model.riv_016.txt
END PERIOD

BEGIN PERIOD 17
  OPEN/CLOSE ../028aa7e6-8fba-4eec-b7ff-24e0a766724f/model.riv_017.txt
END PERIOD

BEGIN PERIOD 18
  OPEN/CLOSE ../028aa7e6-8fba-4eec-b7ff-24e0a766724f/model.riv_018.txt
END PERIOD

BEGIN PERIOD 19
  OPEN/CLOSE ../028aa7e6-8fba-4eec-b7ff-24e0a766724f/model.riv_019.txt
END PERIOD

BEGIN PERIOD 20
  OPEN/CLOSE ../028aa7e6-8fba-4eec-b7ff-24e0a766724f/model.riv_020.txt
END PERIOD

BEGIN PERIOD 21
  OPEN/CLOSE ../028aa7e6-8fba-4eec-b7ff-24e0a766724f/model.riv_021.txt
END PERIOD

BEGIN PERIOD 22
  OPEN/CLOSE ../028aa7e6-8fba-4eec-b7ff-24e0a766724f/model.riv_022.txt
END PERIOD

BEGIN PERIOD 23
  OPEN/CLOSE ../028aa7e6-8fba-4eec-b7ff-24e0a766724f/model.riv_023.txt
END PERIOD

BEGIN PERIOD 24
  OPEN/CLOSE ../028aa7e6-8fba-4eec-b7ff-24e0a766724f/model.riv_024.txt
END PERIOD

BEGIN PERIOD 25
  OPEN/CLOSE ../028aa7e6-8fba-4eec-b7ff-24e0a766724f/model.riv_025.txt
END PERIOD

BEGIN PERIOD 26
  OPEN/CLOSE ../028aa7e6-8fba-4eec-b7ff-24e0a766724f/model.riv_026.txt
END PERIOD

BEGIN PERIOD 27
  OPEN/CLOSE ../028aa7e6-8fba-4eec-b7ff-24e0a766724f/model.riv_027.txt
END PERIOD

BEGIN PERIOD 28
  OPEN/CLOSE ../028aa7e6-8fba-4eec-b7ff-24e0a766724f/model.riv_028.txt
END PERIOD

BEGIN PERIOD 29
  OPEN/CLOSE ../028aa7e6-8fba-4eec-b7ff-24e0a766724f/model.riv_029.txt
END PERIOD

BEGIN PERIOD 30
  OPEN/CLOSE ../028aa7e6-8fba-4eec-b7ff-24e0a766724f/model.riv_030.txt
END PERIOD

BEGIN PERIOD 31
  OPEN/CLOSE ../028aa7e6-8fba-4eec-b7ff-24e0a766724f/model.riv_031.txt
END PERIOD

BEGIN PERIOD 32
  OPEN/CLOSE ../028aa7e6-8fba-4eec-b7ff-24e0a766724f/model.riv_032.txt
END PERIOD

BEGIN PERIOD 33
  OPEN/CLOSE ../028aa7e6-8fba-4eec-b7ff-24e0a766724f/model.riv_033.txt
END PERIOD

BEGIN PERIOD 34
  OPEN/CLOSE ../028aa7e6-8fba-4eec-b7ff-24e0a766724f/model.riv_034.txt
END PERIOD

BEGIN PERIOD 35
  OPEN/CLOSE ../028aa7e6-8fba-4eec-b7ff-24e0a766724f/model.riv_035.txt
END PERIOD

BEGIN PERIOD 36
  OPEN/CLOSE ../028aa7e6-8fba-4eec-b7ff-24e0a766724f/model.riv_036.txt
END PERIOD

BEGIN PERIOD 37
  OPEN/CLOSE ../028aa7e6-8fba-4eec-b7ff-24e0a766724f/model.riv_037.txt
END PERIOD

BEGIN PERIOD 38
  OPEN/CLOSE ../028aa7e6-8fba-4eec-b7ff-24e0a766724f/model.riv_038.txt
END PERIOD

BEGIN PERIOD 39
  OPEN/CLOSE ../028aa7e6-8fba-4eec-b7ff-24e0a766724f/model.riv_039.txt
END PERIOD

BEGIN PERIOD 40
  OPEN/CLOSE ../028aa7e6-8fba-4eec-b7ff-24e0a766724f/model.riv_040.txt
END PERIOD

BEGIN PERIOD 41
  OPEN/CLOSE ../028aa7e6-8fba-4eec-b7ff-24e0a766724f/model.riv_041.txt
END PERIOD

BEGIN PERIOD 42
  OPEN/CLOSE ../028aa7e6-8fba-4eec-b7ff-24e0a766724f/model.riv_042.txt
END PERIOD

BEGIN PERIOD 43
  OPEN/CLOSE ../028aa7e6-8fba-4eec-b7ff-24e0a766724f/model.riv_043.txt
END PERIOD

BEGIN PERIOD 44
  OPEN/CLOSE ../028aa7e6-8fba-4eec-b7ff-24e0a766724f/model.riv_044.txt
END PERIOD

BEGIN PERIOD 45
  OPEN/CLOSE ../028aa7e6-8fba-4eec-b7ff-24e0a766724f/model.riv_045.txt
END PERIOD

BEGIN PERIOD 46
  OPEN/CLOSE ../028aa7e6-8fba-4eec-b7ff-24e0a766724f/model.riv_046.txt
END PERIOD

BEGIN PERIOD 47
  OPEN/CLOSE ../028aa7e6-8fba-4eec-b7ff-24e0a766724f/model.riv_047.txt
END PERIOD

BEGIN PERIOD 48
  OPEN/CLOSE ../028aa7e6-8fba-4eec-b7ff-24e0a766724f/model.riv_048.txt
END PERIOD

BEGIN PERIOD 49
  OPEN/CLOSE ../028aa7e6-8fba-4eec-b7ff-24e0a766724f/model.riv_049.txt
END PERIOD

BEGIN PERIOD 50
  OPEN/CLOSE ../028aa7e6-8fba-4eec-b7ff-24e0a766724f/model.riv_050.txt
END PERIOD

BEGIN PERIOD 51
  OPEN/CLOSE ../028aa7e6-8fba-4eec-b7ff-24e0a766724f/model.riv_051.txt
END PERIOD

BEGIN PERIOD 52
  OPEN/CLOSE ../028aa7e6-8fba-4eec-b7ff-24e0a766724f/model.riv_052.txt
END PERIOD

BEGIN PERIOD 53
  OPEN/CLOSE ../028aa7e6-8fba-4eec-b7ff-24e0a766724f/model.riv_053.txt
END PERIOD

BEGIN PERIOD 54
  OPEN/CLOSE ../028aa7e6-8fba-4eec-b7ff-24e0a766724f/model.riv_054.txt
END PERIOD

BEGIN PERIOD 55
  OPEN/CLOSE ../028aa7e6-8fba-4eec-b7ff-24e0a766724f/model.riv_055.txt
END PERIOD

BEGIN PERIOD 56
  OPEN/CLOSE ../028aa7e6-8fba-4eec-b7ff-24e0a766724f/model.riv_056.txt
END PERIOD

BEGIN PERIOD 57
  OPEN/CLOSE ../028aa7e6-8fba-4eec-b7ff-24e0a766724f/model.riv_057.txt
END PERIOD

BEGIN PERIOD 58
  OPEN/CLOSE ../028aa7e6-8fba-4eec-b7ff-24e0a766724f/model.riv_058.txt
END PERIOD

BEGIN PERIOD 59
  OPEN/CLOSE ../028aa7e6-8fba-4eec-b7ff-24e0a766724f/model.riv_059.txt
END PERIOD

BEGIN PERIOD 60
  OPEN/CLOSE ../028aa7e6-8fba-4eec-b7ff-24e0a766724f/model.riv_060.txt
END PERIOD

BEGIN PERIOD 61
  OPEN/CLOSE ../028aa7e6-8fba-4eec-b7ff-24e0a766724f/model.riv_061.txt
END PERIOD

BEGIN PERIOD 62
  OPEN/CLOSE ../028aa7e6-8fba-4eec-b7ff-24e0a766724f/model.riv_062.txt
END PERIOD

BEGIN PERIOD 63
  OPEN/CLOSE ../028aa7e6-8fba-4eec-b7ff-24e0a766724f/model.riv_063.txt
END PERIOD

BEGIN PERIOD 64
  OPEN/CLOSE ../028aa7e6-8fba-4eec-b7ff-24e0a766724f/model.riv_064.txt
END PERIOD

BEGIN PERIOD 65
  OPEN/CLOSE ../028aa7e6-8fba-4eec-b7ff-24e0a766724f/model.riv_065.txt
END PERIOD

BEGIN PERIOD 66
  OPEN/CLOSE ../028aa7e6-8fba-4eec-b7ff-24e0a766724f/model.riv_066.txt
END PERIOD

BEGIN PERIOD 67
  OPEN/CLOSE ../028aa7e6-8fba-4eec-b7ff-24e0a766724f/model.riv_067.txt
END PERIOD

BEGIN PERIOD 68
  OPEN/CLOSE ../028aa7e6-8fba-4eec-b7ff-24e0a766724f/model.riv_068.txt
END PERIOD

BEGIN PERIOD 69
  OPEN/CLOSE ../028aa7e6-8fba-4eec-b7ff-24e0a766724f/model.riv_069.txt
END PERIOD

BEGIN PERIOD 70
  OPEN/CLOSE ../028aa7e6-8fba-4eec-b7ff-24e0a766724f/model.riv_070.txt
END PERIOD

BEGIN PERIOD 71
  OPEN/CLOSE ../028aa7e6-8fba-4eec-b7ff-24e0a766724f/model.riv_071.txt
END PERIOD

BEGIN PERIOD 72
  OPEN/CLOSE ../028aa7e6-8fba-4eec-b7ff-24e0a766724f/model.riv_072.txt
END PERIOD

BEGIN PERIOD 73
  OPEN/CLOSE ../028aa7e6-8fba-4eec-b7ff-24e0a766724f/model.riv_073.txt
END PERIOD

BEGIN PERIOD 74
  OPEN/CLOSE ../028aa7e6-8fba-4eec-b7ff-24e0a766724f/model.riv_074.txt
END PERIOD

BEGIN PERIOD 75
  OPEN/CLOSE ../028aa7e6-8fba-4eec-b7ff-24e0a766724f/model.riv_075.txt
END PERIOD

BEGIN PERIOD 76
  OPEN/CLOSE ../028aa7e6-8fba-4eec-b7ff-24e0a766724f/model.riv_076.txt
END PERIOD

BEGIN PERIOD 77
  OPEN/CLOSE ../028aa7e6-8fba-4eec-b7ff-24e0a766724f/model.riv_077.txt
END PERIOD

BEGIN PERIOD 78
  OPEN/CLOSE ../028aa7e6-8fba-4eec-b7ff-24e0a766724f/model.riv_078.txt
END PERIOD

BEGIN PERIOD 79
  OPEN/CLOSE ../028aa7e6-8fba-4eec-b7ff-24e0a766724f/model.riv_079.txt
END PERIOD

BEGIN PERIOD 80
  OPEN/CLOSE ../028aa7e6-8fba-4eec-b7ff-24e0a766724f/model.riv_080.txt
END PERIOD

BEGIN PERIOD 81
  OPEN/CLOSE ../028aa7e6-8fba-4eec-b7ff-24e0a766724f/model.riv_081.txt
END PERIOD

BEGIN PERIOD 82
  OPEN/CLOSE ../028aa7e6-8fba-4eec-b7ff-24e0a766724f/model.riv_082.txt
END PERIOD

BEGIN PERIOD 83
  OPEN/CLOSE ../028aa7e6-8fba-4eec-b7ff-24e0a766724f/model.riv_083.txt
END PERIOD

BEGIN PERIOD 84
  OPEN/CLOSE ../028aa7e6-8fba-4eec-b7ff-24e0a766724f/model.riv_084.txt
END PERIOD

BEGIN PERIOD 85
  OPEN/CLOSE ../028aa7e6-8fba-4eec-b7ff-24e0a766724f/model.riv_085.txt
END PERIOD

BEGIN PERIOD 86
  OPEN/CLOSE ../028aa7e6-8fba-4eec-b7ff-24e0a766724f/model.riv_086.txt
END PERIOD

BEGIN PERIOD 87
  OPEN/CLOSE ../028aa7e6-8fba-4eec-b7ff-24e0a766724f/model.riv_087.txt
END PERIOD

BEGIN PERIOD 88
  OPEN/CLOSE ../028aa7e6-8fba-4eec-b7ff-24e0a766724f/model.riv_088.txt
END PERIOD

BEGIN PERIOD 89
  OPEN/CLOSE ../028aa7e6-8fba-4eec-b7ff-24e0a766724f/model.riv_089.txt
END PERIOD

BEGIN PERIOD 90
  OPEN/CLOSE ../028aa7e6-8fba-4eec-b7ff-24e0a766724f/model.riv_090.txt
END PERIOD

BEGIN PERIOD 91
  OPEN/CLOSE ../028aa7e6-8fba-4eec-b7ff-24e0a766724f/model.riv_091.txt
END PERIOD

BEGIN PERIOD 92
  OPEN/CLOSE ../028aa7e6-8fba-4eec-b7ff-24e0a766724f/model.riv_092.txt
END PERIOD

BEGIN PERIOD 93
  OPEN/CLOSE ../028aa7e6-8fba-4eec-b7ff-24e0a766724f/model.riv_093.txt
END PERIOD

BEGIN PERIOD 94
  OPEN/CLOSE ../028aa7e6-8fba-4eec-b7ff-24e0a766724f/model.riv_094.txt
END PERIOD

BEGIN PERIOD 95
  OPEN/CLOSE ../028aa7e6-8fba-4eec-b7ff-24e0a766724f/model.riv_095.txt
END PERIOD

BEGIN PERIOD 96
  OPEN/CLOSE ../028aa7e6-8fba-4eec-b7ff-24e0a766724f/model.riv_096.txt
END PERIOD

BEGIN PERIOD 97
  OPEN/CLOSE ../028aa7e6-8fba-4eec-b7ff-24e0a766724f/model.riv_097.txt
END PERIOD

BEGIN PERIOD 98
  OPEN/CLOSE ../028aa7e6-8fba-4eec-b7ff-24e0a766724f/model.riv_098.txt
END PERIOD

BEGIN PERIOD 99
  OPEN/CLOSE ../028aa7e6-8fba-4eec-b7ff-24e0a766724f/model.riv_099.txt
END PERIOD

BEGIN PERIOD 100
  OPEN/CLOSE ../028aa7e6-8fba-4eec-b7ff-24e0a766724f/model.riv_100.txt
END PERIOD

BEGIN PERIOD 101
  OPEN/CLOSE ../028aa7e6-8fba-4eec-b7ff-24e0a766724f/model.riv_101.txt
END PERIOD

BEGIN PERIOD 102
  OPEN/CLOSE ../028aa7e6-8fba-4eec-b7ff-24e0a766724f/model.riv_102.txt
END PERIOD

BEGIN PERIOD 103
  OPEN/CLOSE ../028aa7e6-8fba-4eec-b7ff-24e0a766724f/model.riv_103.txt
END PERIOD

BEGIN PERIOD 104
  OPEN/CLOSE ../028aa7e6-8fba-4eec-b7ff-24e0a766724f/model.riv_104.txt
END PERIOD

BEGIN PERIOD 105
  OPEN/CLOSE ../028aa7e6-8fba-4eec-b7ff-24e0a766724f/model.riv_105.txt
END PERIOD

BEGIN PERIOD 106
  OPEN/CLOSE ../028aa7e6-8fba-4eec-b7ff-24e0a766724f/model.riv_106.txt
END PERIOD

BEGIN PERIOD 107
  OPEN/CLOSE ../028aa7e6-8fba-4eec-b7ff-24e0a766724f/model.riv_107.txt
END PERIOD

BEGIN PERIOD 108
  OPEN/CLOSE ../028aa7e6-8fba-4eec-b7ff-24e0a766724f/model.riv_108.txt
END PERIOD

BEGIN PERIOD 109
  OPEN/CLOSE ../028aa7e6-8fba-4eec-b7ff-24e0a766724f/model.riv_109.txt
END PERIOD

BEGIN PERIOD 110
  OPEN/CLOSE ../028aa7e6-8fba-4eec-b7ff-24e0a766724f/model.riv_110.txt
END PERIOD

BEGIN PERIOD 111
  OPEN/CLOSE ../028aa7e6-8fba-4eec-b7ff-24e0a766724f/model.riv_111.txt
END PERIOD

BEGIN PERIOD 112
  OPEN/CLOSE ../028aa7e6-8fba-4eec-b7ff-24e0a766724f/model.riv_112.txt
END PERIOD

BEGIN PERIOD 113
  OPEN/CLOSE ../028aa7e6-8fba-4eec-b7ff-24e0a766724f/model.riv_113.txt
END PERIOD

BEGIN PERIOD 114
  OPEN/CLOSE ../028aa7e6-8fba-4eec-b7ff-24e0a766724f/model.riv_114.txt
END PERIOD

BEGIN PERIOD 115
  OPEN/CLOSE ../028aa7e6-8fba-4eec-b7ff-24e0a766724f/model.riv_115.txt
END PERIOD

BEGIN PERIOD 116
  OPEN/CLOSE ../028aa7e6-8fba-4eec-b7ff-24e0a766724f/model.riv_116.txt
END PERIOD

BEGIN PERIOD 117
  OPEN/CLOSE ../028aa7e6-8fba-4eec-b7ff-24e0a766724f/model.riv_117.txt
END PERIOD

BEGIN PERIOD 118
  OPEN/CLOSE ../028aa7e6-8fba-4eec-b7ff-24e0a766724f/model.riv_118.txt
END PERIOD

BEGIN PERIOD 119
  OPEN/CLOSE ../028aa7e6-8fba-4eec-b7ff-24e0a766724f/model.riv_119.txt
END PERIOD

BEGIN PERIOD 120
  OPEN/CLOSE ../028aa7e6-8fba-4eec-b7ff-24e0a766724f/model.riv_120.txt
END PERIOD

BEGIN PERIOD 121
  OPEN/CLOSE ../028aa7e6-8fba-4eec-b7ff-24e0a766724f/model.riv_121.txt
END PERIOD

BEGIN PERIOD 122
  OPEN/CLOSE ../028aa7e6-8fba-4eec-b7ff-24e0a766724f/model.riv_122.txt
END PERIOD

BEGIN PERIOD 123
  OPEN/CLOSE ../028aa7e6-8fba-4eec-b7ff-24e0a766724f/model.riv_123.txt
END PERIOD

BEGIN PERIOD 124
  OPEN/CLOSE ../028aa7e6-8fba-4eec-b7ff-24e0a766724f/model.riv_124.txt
END PERIOD

BEGIN PERIOD 125
  OPEN/CLOSE ../028aa7e6-8fba-4eec-b7ff-24e0a766724f/model.riv_125.txt
END PERIOD

BEGIN PERIOD 126
  OPEN/CLOSE ../028aa7e6-8fba-4eec-b7ff-24e0a766724f/model.riv_126.txt
END PERIOD

BEGIN PERIOD 127
  OPEN/CLOSE ../028aa7e6-8fba-4eec-b7ff-24e0a766724f/model.riv_127.txt
END PERIOD

BEGIN PERIOD 128
  OPEN/CLOSE ../028aa7e6-8fba-4eec-b7ff-24e0a766724f/model.riv_128.txt
END PERIOD

BEGIN PERIOD 129
  OPEN/CLOSE ../028aa7e6-8fba-4eec-b7ff-24e0a766724f/model.riv_129.txt
END PERIOD

BEGIN PERIOD 130
  OPEN/CLOSE ../028aa7e6-8fba-4eec-b7ff-24e0a766724f/model.riv_130.txt
END PERIOD

BEGIN PERIOD 131
  OPEN/CLOSE ../028aa7e6-8fba-4eec-b7ff-24e0a766724f/model.riv_131.txt
END PERIOD

BEGIN PERIOD 132
  OPEN/CLOSE ../028aa7e6-8fba-4eec-b7ff-24e0a766724f/model.riv_132.txt
END PERIOD

BEGIN PERIOD 133
  OPEN/CLOSE ../028aa7e6-8fba-4eec-b7ff-24e0a766724f/model.riv_133.txt
END PERIOD

BEGIN PERIOD 134
  OPEN/CLOSE ../028aa7e6-8fba-4eec-b7ff-24e0a766724f/model.riv_134.txt
END PERIOD

BEGIN PERIOD 135
  OPEN/CLOSE ../028aa7e6-8fba-4eec-b7ff-24e0a766724f/model.riv_135.txt
END PERIOD

BEGIN PERIOD 136
  OPEN/CLOSE ../028aa7e6-8fba-4eec-b7ff-24e0a766724f/model.riv_136.txt
END PERIOD

BEGIN PERIOD 137
  OPEN/CLOSE ../028aa7e6-8fba-4eec-b7ff-24e0a766724f/model.riv_137.txt
END PERIOD

BEGIN PERIOD 138
  OPEN/CLOSE ../028aa7e6-8fba-4eec-b7ff-24e0a766724f/model.riv_138.txt
END PERIOD

BEGIN PERIOD 139
  OPEN/CLOSE ../028aa7e6-8fba-4eec-b7ff-24e0a766724f/model.riv_139.txt
END PERIOD

BEGIN PERIOD 140
  OPEN/CLOSE ../028aa7e6-8fba-4eec-b7ff-24e0a766724f/model.riv_140.txt
END PERIOD

BEGIN PERIOD 141
  OPEN/CLOSE ../028aa7e6-8fba-4eec-b7ff-24e0a766724f/model.riv_141.txt
END PERIOD

BEGIN PERIOD 142
  OPEN/CLOSE ../028aa7e6-8fba-4eec-b7ff-24e0a766724f/model.riv_142.txt
END PERIOD

BEGIN PERIOD 143
  OPEN/CLOSE ../028aa7e6-8fba-4eec-b7ff-24e0a766724f/model.riv_143.txt
END PERIOD

BEGIN PERIOD 144
  OPEN/CLOSE ../028aa7e6-8fba-4eec-b7ff-24e0a766724f/model.riv_144.txt
END PERIOD

BEGIN PERIOD 145
  OPEN/CLOSE ../028aa7e6-8fba-4eec-b7ff-24e0a766724f/model.riv_145.txt
END PERIOD

BEGIN PERIOD 146
  OPEN/CLOSE ../028aa7e6-8fba-4eec-b7ff-24e0a766724f/model.riv_146.txt
END PERIOD

BEGIN PERIOD 147
  OPEN/CLOSE ../028aa7e6-8fba-4eec-b7ff-24e0a766724f/model.riv_147.txt
END PERIOD

BEGIN PERIOD 148
  OPEN/CLOSE ../028aa7e6-8fba-4eec-b7ff-24e0a766724f/model.riv_148.txt
END PERIOD

BEGIN PERIOD 149
  OPEN/CLOSE ../028aa7e6-8fba-4eec-b7ff-24e0a766724f/model.riv_149.txt
END PERIOD

BEGIN PERIOD 150
  OPEN/CLOSE ../028aa7e6-8fba-4eec-b7ff-24e0a766724f/model.riv_150.txt
END PERIOD

BEGIN PERIOD 151
  OPEN/CLOSE ../028aa7e6-8fba-4eec-b7ff-24e0a766724f/model.riv_151.txt
END PERIOD

BEGIN PERIOD 152
  OPEN/CLOSE ../028aa7e6-8fba-4eec-b7ff-24e0a766724f/model.riv_152.txt
END PERIOD

BEGIN PERIOD 153
  OPEN/CLOSE ../028aa7e6-8fba-4eec-b7ff-24e0a766724f/model.riv_153.txt
END PERIOD

BEGIN PERIOD 154
  OPEN/CLOSE ../028aa7e6-8fba-4eec-b7ff-24e0a766724f/model.riv_154.txt
END PERIOD

BEGIN PERIOD 155
  OPEN/CLOSE ../028aa7e6-8fba-4eec-b7ff-24e0a766724f/model.riv_155.txt
END PERIOD

BEGIN PERIOD 156
  OPEN/CLOSE ../028aa7e6-8fba-4eec-b7ff-24e0a766724f/model.riv_156.txt
END PERIOD

BEGIN PERIOD 157
  OPEN/CLOSE ../028aa7e6-8fba-4eec-b7ff-24e0a766724f/model.riv_157.txt
END PERIOD

BEGIN PERIOD 158
  OPEN/CLOSE ../028aa7e6-8fba-4eec-b7ff-24e0a766724f/model.riv_158.txt
END PERIOD

BEGIN PERIOD 159
  OPEN/CLOSE ../028aa7e6-8fba-4eec-b7ff-24e0a766724f/model.riv_159.txt
END PERIOD

BEGIN PERIOD 160
  OPEN/CLOSE ../028aa7e6-8fba-4eec-b7ff-24e0a766724f/model.riv_160.txt
END PERIOD

BEGIN PERIOD 161
  OPEN/CLOSE ../028aa7e6-8fba-4eec-b7ff-24e0a766724f/model.riv_161.txt
END PERIOD

BEGIN PERIOD 162
  OPEN/CLOSE ../028aa7e6-8fba-4eec-b7ff-24e0a766724f/model.riv_162.txt
END PERIOD

BEGIN PERIOD 163
  OPEN/CLOSE ../028aa7e6-8fba-4eec-b7ff-24e0a766724f/model.riv_163.txt
END PERIOD

BEGIN PERIOD 164
  OPEN/CLOSE ../028aa7e6-8fba-4eec-b7ff-24e0a766724f/model.riv_164.txt
END PERIOD

BEGIN PERIOD 165
  OPEN/CLOSE ../028aa7e6-8fba-4eec-b7ff-24e0a766724f/model.riv_165.txt
END PERIOD

BEGIN PERIOD 166
  OPEN/CLOSE ../028aa7e6-8fba-4eec-b7ff-24e0a766724f/model.riv_166.txt
END PERIOD

BEGIN PERIOD 167
  OPEN/CLOSE ../028aa7e6-8fba-4eec-b7ff-24e0a766724f/model.riv_167.txt
END PERIOD

BEGIN PERIOD 168
  OPEN/CLOSE ../028aa7e6-8fba-4eec-b7ff-24e0a766724f/model.riv_168.txt
END PERIOD

BEGIN PERIOD 169
  OPEN/CLOSE ../028aa7e6-8fba-4eec-b7ff-24e0a766724f/model.riv_169.txt
END PERIOD

BEGIN PERIOD 170
  OPEN/CLOSE ../028aa7e6-8fba-4eec-b7ff-24e0a766724f/model.riv_170.txt
END PERIOD

BEGIN PERIOD 171
  OPEN/CLOSE ../028aa7e6-8fba-4eec-b7ff-24e0a766724f/model.riv_171.txt
END PERIOD

BEGIN PERIOD 172
  OPEN/CLOSE ../028aa7e6-8fba-4eec-b7ff-24e0a766724f/model.riv_172.txt
END PERIOD

BEGIN PERIOD 173
  OPEN/CLOSE ../028aa7e6-8fba-4eec-b7ff-24e0a766724f/model.riv_173.txt
END PERIOD

BEGIN PERIOD 174
  OPEN/CLOSE ../028aa7e6-8fba-4eec-b7ff-24e0a766724f/model.riv_174.txt
END PERIOD

BEGIN PERIOD 175
  OPEN/CLOSE ../028aa7e6-8fba-4eec-b7ff-24e0a766724f/model.riv_175.txt
END PERIOD

BEGIN PERIOD 176
  OPEN/CLOSE ../028aa7e6-8fba-4eec-b7ff-24e0a766724f/model.riv_176.txt
END PERIOD

BEGIN PERIOD 177
  OPEN/CLOSE ../028aa7e6-8fba-4eec-b7ff-24e0a766724f/model.riv_177.txt
END PERIOD

BEGIN PERIOD 178
  OPEN/CLOSE ../028aa7e6-8fba-4eec-b7ff-24e0a766724f/model.riv_178.txt
END PERIOD

BEGIN PERIOD 179
  OPEN/CLOSE ../028aa7e6-8fba-4eec-b7ff-24e0a766724f/model.riv_179.txt
END PERIOD

BEGIN PERIOD 180
  OPEN/CLOSE ../028aa7e6-8fba-4eec-b7ff-24e0a766724f/model.riv_180.txt
END PERIOD

BEGIN PERIOD 181
  OPEN/CLOSE ../028aa7e6-8fba-4eec-b7ff-24e0a766724f/model.riv_181.txt
END PERIOD

BEGIN PERIOD 182
  OPEN/CLOSE ../028aa7e6-8fba-4eec-b7ff-24e0a766724f/model.riv_182.txt
END PERIOD

BEGIN PERIOD 183
  OPEN/CLOSE ../028aa7e6-8fba-4eec-b7ff-24e0a766724f/model.riv_183.txt
END PERIOD

BEGIN PERIOD 184
  OPEN/CLOSE ../028aa7e6-8fba-4eec-b7ff-24e0a766724f/model.riv_184.txt
END PERIOD

BEGIN PERIOD 185
  OPEN/CLOSE ../028aa7e6-8fba-4eec-b7ff-24e0a766724f/model.riv_185.txt
END PERIOD

BEGIN PERIOD 186
  OPEN/CLOSE ../028aa7e6-8fba-4eec-b7ff-24e0a766724f/model.riv_186.txt
END PERIOD

BEGIN PERIOD 187
  OPEN/CLOSE ../028aa7e6-8fba-4eec-b7ff-24e0a766724f/model.riv_187.txt
END PERIOD

BEGIN PERIOD 188
  OPEN/CLOSE ../028aa7e6-8fba-4eec-b7ff-24e0a766724f/model.riv_188.txt
END PERIOD

BEGIN PERIOD 189
  OPEN/CLOSE ../028aa7e6-8fba-4eec-b7ff-24e0a766724f/model.riv_189.txt
END PERIOD

BEGIN PERIOD 190
  OPEN/CLOSE ../028aa7e6-8fba-4eec-b7ff-24e0a766724f/model.riv_190.txt
END PERIOD

BEGIN PERIOD 191
  OPEN/CLOSE ../028aa7e6-8fba-4eec-b7ff-24e0a766724f/model.riv_191.txt
END PERIOD

BEGIN PERIOD 192
  OPEN/CLOSE ../028aa7e6-8fba-4eec-b7ff-24e0a766724f/model.riv_192.txt
END PERIOD

BEGIN PERIOD 193
  OPEN/CLOSE ../028aa7e6-8fba-4eec-b7ff-24e0a766724f/model.riv_193.txt
END PERIOD

BEGIN PERIOD 194
  OPEN/CLOSE ../028aa7e6-8fba-4eec-b7ff-24e0a766724f/model.riv_194.txt
END PERIOD

BEGIN PERIOD 195
  OPEN/CLOSE ../028aa7e6-8fba-4eec-b7ff-24e0a766724f/model.riv_195.txt
END PERIOD

BEGIN PERIOD 196
  OPEN/CLOSE ../028aa7e6-8fba-4eec-b7ff-24e0a766724f/model.riv_196.txt
END PERIOD

BEGIN PERIOD 197
  OPEN/CLOSE ../028aa7e6-8fba-4eec-b7ff-24e0a766724f/model.riv_197.txt
END PERIOD

BEGIN PERIOD 198
  OPEN/CLOSE ../028aa7e6-8fba-4eec-b7ff-24e0a766724f/model.riv_198.txt
END PERIOD

BEGIN PERIOD 199
  OPEN/CLOSE ../028aa7e6-8fba-4eec-b7ff-24e0a766724f/model.riv_199.txt
END PERIOD

BEGIN PERIOD 200
  OPEN/CLOSE ../028aa7e6-8fba-4eec-b7ff-24e0a766724f/model.riv_200.txt
END PERIOD

BEGIN PERIOD 201
  OPEN/CLOSE ../028aa7e6-8fba-4eec-b7ff-24e0a766724f/model.riv_201.txt
END PERIOD

BEGIN PERIOD 202
  OPEN/CLOSE ../028aa7e6-8fba-4eec-b7ff-24e0a766724f/model.riv_202.txt
END PERIOD

BEGIN PERIOD 203
  OPEN/CLOSE ../028aa7e6-8fba-4eec-b7ff-24e0a766724f/model.riv_203.txt
END PERIOD

BEGIN PERIOD 204
  OPEN/CLOSE ../028aa7e6-8fba-4eec-b7ff-24e0a766724f/model.riv_204.txt
END PERIOD

BEGIN PERIOD 205
  OPEN/CLOSE ../028aa7e6-8fba-4eec-b7ff-24e0a766724f/model.riv_205.txt
END PERIOD

BEGIN PERIOD 206
  OPEN/CLOSE ../028aa7e6-8fba-4eec-b7ff-24e0a766724f/model.riv_206.txt
END PERIOD

BEGIN PERIOD 207
  OPEN/CLOSE ../028aa7e6-8fba-4eec-b7ff-24e0a766724f/model.riv_207.txt
END PERIOD

BEGIN PERIOD 208
  OPEN/CLOSE ../028aa7e6-8fba-4eec-b7ff-24e0a766724f/model.riv_208.txt
END PERIOD

BEGIN PERIOD 209
  OPEN/CLOSE ../028aa7e6-8fba-4eec-b7ff-24e0a766724f/model.riv_209.txt
END PERIOD

BEGIN PERIOD 210
  OPEN/CLOSE ../028aa7e6-8fba-4eec-b7ff-24e0a766724f/model.riv_210.txt
END PERIOD

BEGIN PERIOD 211
  OPEN/CLOSE ../028aa7e6-8fba-4eec-b7ff-24e0a766724f/model.riv_211.txt
END PERIOD

BEGIN PERIOD 212
  OPEN/CLOSE ../028aa7e6-8fba-4eec-b7ff-24e0a766724f/model.riv_212.txt
END PERIOD

BEGIN PERIOD 213
  OPEN/CLOSE ../028aa7e6-8fba-4eec-b7ff-24e0a766724f/model.riv_213.txt
END PERIOD

BEGIN PERIOD 214
  OPEN/CLOSE ../028aa7e6-8fba-4eec-b7ff-24e0a766724f/model.riv_214.txt
END PERIOD

BEGIN PERIOD 215
  OPEN/CLOSE ../028aa7e6-8fba-4eec-b7ff-24e0a766724f/model.riv_215.txt
END PERIOD

BEGIN PERIOD 216
  OPEN/CLOSE ../028aa7e6-8fba-4eec-b7ff-24e0a766724f/model.riv_216.txt
END PERIOD

BEGIN PERIOD 217
  OPEN/CLOSE ../028aa7e6-8fba-4eec-b7ff-24e0a766724f/model.riv_217.txt
END PERIOD

BEGIN PERIOD 218
  OPEN/CLOSE ../028aa7e6-8fba-4eec-b7ff-24e0a766724f/model.riv_218.txt
END PERIOD

BEGIN PERIOD 219
  OPEN/CLOSE ../028aa7e6-8fba-4eec-b7ff-24e0a766724f/model.riv_219.txt
END PERIOD

BEGIN PERIOD 220
  OPEN/CLOSE ../028aa7e6-8fba-4eec-b7ff-24e0a766724f/model.riv_220.txt
END PERIOD

BEGIN PERIOD 221
  OPEN/CLOSE ../028aa7e6-8fba-4eec-b7ff-24e0a766724f/model.riv_221.txt
END PERIOD

BEGIN PERIOD 222
  OPEN/CLOSE ../028aa7e6-8fba-4eec-b7ff-24e0a766724f/model.riv_222.txt
END PERIOD

BEGIN PERIOD 223
  OPEN/CLOSE ../028aa7e6-8fba-4eec-b7ff-24e0a766724f/model.riv_223.txt
END PERIOD

BEGIN PERIOD 224
  OPEN/CLOSE ../028aa7e6-8fba-4eec-b7ff-24e0a766724f/model.riv_224.txt
END PERIOD

BEGIN PERIOD 225
  OPEN/CLOSE ../028aa7e6-8fba-4eec-b7ff-24e0a766724f/model.riv_225.txt
END PERIOD

BEGIN PERIOD 226
  OPEN/CLOSE ../028aa7e6-8fba-4eec-b7ff-24e0a766724f/model.riv_226.txt
END PERIOD

BEGIN PERIOD 227
  OPEN/CLOSE ../028aa7e6-8fba-4eec-b7ff-24e0a766724f/model.riv_227.txt
END PERIOD

BEGIN PERIOD 228
  OPEN/CLOSE ../028aa7e6-8fba-4eec-b7ff-24e0a766724f/model.riv_228.txt
END PERIOD

BEGIN PERIOD 229
  OPEN/CLOSE ../028aa7e6-8fba-4eec-b7ff-24e0a766724f/model.riv_229.txt
END PERIOD

BEGIN PERIOD 230
  OPEN/CLOSE ../028aa7e6-8fba-4eec-b7ff-24e0a766724f/model.riv_230.txt
END PERIOD

BEGIN PERIOD 231
  OPEN/CLOSE ../028aa7e6-8fba-4eec-b7ff-24e0a766724f/model.riv_231.txt
END PERIOD

BEGIN PERIOD 232
  OPEN/CLOSE ../028aa7e6-8fba-4eec-b7ff-24e0a766724f/model.riv_232.txt
END PERIOD

BEGIN PERIOD 233
  OPEN/CLOSE ../028aa7e6-8fba-4eec-b7ff-24e0a766724f/model.riv_233.txt
END PERIOD

BEGIN PERIOD 234
  OPEN/CLOSE ../028aa7e6-8fba-4eec-b7ff-24e0a766724f/model.riv_234.txt
END PERIOD

BEGIN PERIOD 235
  OPEN/CLOSE ../028aa7e6-8fba-4eec-b7ff-24e0a766724f/model.riv_235.txt
END PERIOD

BEGIN PERIOD 236
  OPEN/CLOSE ../028aa7e6-8fba-4eec-b7ff-24e0a766724f/model.riv_236.txt
END PERIOD

BEGIN PERIOD 237
  OPEN/CLOSE ../028aa7e6-8fba-4eec-b7ff-24e0a766724f/model.riv_237.txt
END PERIOD

BEGIN PERIOD 238
  OPEN/CLOSE ../028aa7e6-8fba-4eec-b7ff-24e0a766724f/model.riv_238.txt
END PERIOD

BEGIN PERIOD 239
  OPEN/CLOSE ../028aa7e6-8fba-4eec-b7ff-24e0a766724f/model.riv_239.txt
END PERIOD

BEGIN PERIOD 240
  OPEN/CLOSE ../028aa7e6-8fba-4eec-b7ff-24e0a766724f/model.riv_240.txt
END PERIOD

BEGIN PERIOD 241
  OPEN/CLOSE ../028aa7e6-8fba-4eec-b7ff-24e0a766724f/model.riv_241.txt
END PERIOD

BEGIN PERIOD 242
  OPEN/CLOSE ../028aa7e6-8fba-4eec-b7ff-24e0a766724f/model.riv_242.txt
END PERIOD

BEGIN PERIOD 243
  OPEN/CLOSE ../028aa7e6-8fba-4eec-b7ff-24e0a766724f/model.riv_243.txt
END PERIOD

BEGIN PERIOD 244
  OPEN/CLOSE ../028aa7e6-8fba-4eec-b7ff-24e0a766724f/model.riv_244.txt
END PERIOD

BEGIN PERIOD 245
  OPEN/CLOSE ../028aa7e6-8fba-4eec-b7ff-24e0a766724f/model.riv_245.txt
END PERIOD

BEGIN PERIOD 246
  OPEN/CLOSE ../028aa7e6-8fba-4eec-b7ff-24e0a766724f/model.riv_246.txt
END PERIOD

BEGIN PERIOD 247
  OPEN/CLOSE ../028aa7e6-8fba-4eec-b7ff-24e0a766724f/model.riv_247.txt
END PERIOD

BEGIN PERIOD 248
  OPEN/CLOSE ../028aa7e6-8fba-4eec-b7ff-24e0a766724f/model.riv_248.txt
END PERIOD

BEGIN PERIOD 249
  OPEN/CLOSE ../028aa7e6-8fba-4eec-b7ff-24e0a766724f/model.riv_249.txt
END PERIOD

BEGIN PERIOD 250
  OPEN/CLOSE ../028aa7e6-8fba-4eec-b7ff-24e0a766724f/model.riv_250.txt
END PERIOD

BEGIN PERIOD 251
  OPEN/CLOSE ../028aa7e6-8fba-4eec-b7ff-24e0a766724f/model.riv_251.txt
END PERIOD

BEGIN PERIOD 252
  OPEN/CLOSE ../028aa7e6-8fba-4eec-b7ff-24e0a766724f/model.riv_252.txt
END PERIOD

BEGIN PERIOD 253
  OPEN/CLOSE ../028aa7e6-8fba-4eec-b7ff-24e0a766724f/model.riv_253.txt
END PERIOD

BEGIN PERIOD 254
  OPEN/CLOSE ../028aa7e6-8fba-4eec-b7ff-24e0a766724f/model.riv_254.txt
END PERIOD

BEGIN PERIOD 255
  OPEN/CLOSE ../028aa7e6-8fba-4eec-b7ff-24e0a766724f/model.riv_255.txt
END PERIOD

BEGIN PERIOD 256
  OPEN/CLOSE ../028aa7e6-8fba-4eec-b7ff-24e0a766724f/model.riv_256.txt
END PERIOD

BEGIN PERIOD 257
  OPEN/CLOSE ../028aa7e6-8fba-4eec-b7ff-24e0a766724f/model.riv_257.txt
END PERIOD

BEGIN PERIOD 258
  OPEN/CLOSE ../028aa7e6-8fba-4eec-b7ff-24e0a766724f/model.riv_258.txt
END PERIOD

BEGIN PERIOD 259
  OPEN/CLOSE ../028aa7e6-8fba-4eec-b7ff-24e0a766724f/model.riv_259.txt
END PERIOD

BEGIN PERIOD 260
  OPEN/CLOSE ../028aa7e6-8fba-4eec-b7ff-24e0a766724f/model.riv_260.txt
END PERIOD

BEGIN PERIOD 261
  OPEN/CLOSE ../028aa7e6-8fba-4eec-b7ff-24e0a766724f/model.riv_261.txt
END PERIOD

BEGIN PERIOD 262
  OPEN/CLOSE ../028aa7e6-8fba-4eec-b7ff-24e0a766724f/model.riv_262.txt
END PERIOD

BEGIN PERIOD 263
  OPEN/CLOSE ../028aa7e6-8fba-4eec-b7ff-24e0a766724f/model.riv_263.txt
END PERIOD

BEGIN PERIOD 264
  OPEN/CLOSE ../028aa7e6-8fba-4eec-b7ff-24e0a766724f/model.riv_264.txt
END PERIOD

BEGIN PERIOD 265
  OPEN/CLOSE ../028aa7e6-8fba-4eec-b7ff-24e0a766724f/model.riv_265.txt
END PERIOD

BEGIN PERIOD 266
  OPEN/CLOSE ../028aa7e6-8fba-4eec-b7ff-24e0a766724f/model.riv_266.txt
END PERIOD

BEGIN PERIOD 267
  OPEN/CLOSE ../028aa7e6-8fba-4eec-b7ff-24e0a766724f/model.riv_267.txt
END PERIOD

BEGIN PERIOD 268
  OPEN/CLOSE ../028aa7e6-8fba-4eec-b7ff-24e0a766724f/model.riv_268.txt
END PERIOD

BEGIN PERIOD 269
  OPEN/CLOSE ../028aa7e6-8fba-4eec-b7ff-24e0a766724f/model.riv_269.txt
END PERIOD

BEGIN PERIOD 270
  OPEN/CLOSE ../028aa7e6-8fba-4eec-b7ff-24e0a766724f/model.riv_270.txt
END PERIOD

BEGIN PERIOD 271
  OPEN/CLOSE ../028aa7e6-8fba-4eec-b7ff-24e0a766724f/model.riv_271.txt
END PERIOD

BEGIN PERIOD 272
  OPEN/CLOSE ../028aa7e6-8fba-4eec-b7ff-24e0a766724f/model.riv_272.txt
END PERIOD

BEGIN PERIOD 273
  OPEN/CLOSE ../028aa7e6-8fba-4eec-b7ff-24e0a766724f/model.riv_273.txt
END PERIOD

BEGIN PERIOD 274
  OPEN/CLOSE ../028aa7e6-8fba-4eec-b7ff-24e0a766724f/model.riv_274.txt
END PERIOD

BEGIN PERIOD 275
  OPEN/CLOSE ../028aa7e6-8fba-4eec-b7ff-24e0a766724f/model.riv_275.txt
END PERIOD

BEGIN PERIOD 276
  OPEN/CLOSE ../028aa7e6-8fba-4eec-b7ff-24e0a766724f/model.riv_276.txt
END PERIOD

BEGIN PERIOD 277
  OPEN/CLOSE ../028aa7e6-8fba-4eec-b7ff-24e0a766724f/model.riv_277.txt
END PERIOD

BEGIN PERIOD 278
  OPEN/CLOSE ../028aa7e6-8fba-4eec-b7ff-24e0a766724f/model.riv_278.txt
END PERIOD

BEGIN PERIOD 279
  OPEN/CLOSE ../028aa7e6-8fba-4eec-b7ff-24e0a766724f/model.riv_279.txt
END PERIOD

BEGIN PERIOD 280
  OPEN/CLOSE ../028aa7e6-8fba-4eec-b7ff-24e0a766724f/model.riv_280.txt
END PERIOD

BEGIN PERIOD 281
  OPEN/CLOSE ../028aa7e6-8fba-4eec-b7ff-24e0a766724f/model.riv_281.txt
END PERIOD

BEGIN PERIOD 282
  OPEN/CLOSE ../028aa7e6-8fba-4eec-b7ff-24e0a766724f/model.riv_282.txt
END PERIOD

BEGIN PERIOD 283
  OPEN/CLOSE ../028aa7e6-8fba-4eec-b7ff-24e0a766724f/model.riv_283.txt
END PERIOD

BEGIN PERIOD 284
  OPEN/CLOSE ../028aa7e6-8fba-4eec-b7ff-24e0a766724f/model.riv_284.txt
END PERIOD

BEGIN PERIOD 285
  OPEN/CLOSE ../028aa7e6-8fba-4eec-b7ff-24e0a766724f/model.riv_285.txt
END PERIOD

BEGIN PERIOD 286
  OPEN/CLOSE ../028aa7e6-8fba-4eec-b7ff-24e0a766724f/model.riv_286.txt
END PERIOD

BEGIN PERIOD 287
  OPEN/CLOSE ../028aa7e6-8fba-4eec-b7ff-24e0a766724f/model.riv_287.txt
END PERIOD

BEGIN PERIOD 288
  OPEN/CLOSE ../028aa7e6-8fba-4eec-b7ff-24e0a766724f/model.riv_288.txt