BEGIN OPTIONS
  PRINT_INPUT
  PRINT_FLOWS
  SAVE_FLOWS
  BOUNDNAMES
  AUXILIARY CELLGRP
END OPTIONS

BEGIN DIMENSIONS
  MAXBOUND 2
END DIMENSIONS

BEGIN PERIOD 1
  OPEN/CLOSE ../ba451883-0548-4d6f-bd24-6f2482a1cb8d/model.wel_1.txt
END PERIOD
