BEGIN OPTIONS
  PRINT_INPUT
  PRINT_FLOWS
  SAVE_FLOWS
  BOUNDNAMES
  AUXILIARY CELLGRP
END OPTIONS

BEGIN DIMENSIONS
  MAXBOUND 2
END DIMENSIONS

BEGIN PERIOD 1
  OPEN/CLOSE ../e6aed023-00dd-41c8-8f0b-0914c71abd41/model.wel_1.txt
END PERIOD
