BEGIN OPTIONS
  SAVE_FLOWS
END OPTIONS

BEGIN GRIDDATA
  ICELLTYPE
    CONSTANT -1
  K LAYERED
    OPEN/CLOSE ../050938b5-5ccc-4935-8cdf-d814da326e4b/model.npf_K_1.txt FACTOR 1.0
  K33 LAYERED
    CONSTANT 0.1
END GRIDDATA
