BEGIN OPTIONS
END OPTIONS

BEGIN GRIDDATA
  STRT LAYERED
    OPEN/CLOSE ../9e6d637f-a439-4067-8cf7-8339e4000e22/model.ic_STRT_1.txt FACTOR 1.0
END GRIDDATA
