# File generated by Flopy version 3.3.6 on 07/20/2023 at 11:35:20.
BEGIN OPTIONS
  SAVE_FLOWS
END OPTIONS

BEGIN GRIDDATA
  iconvert
    CONSTANT  1
  ss
    CONSTANT  1.00000000E-04
  sy
    CONSTANT       0.01000000
END GRIDDATA

BEGIN PERIOD  1
  TRANSIENT
END PERIOD  1

