# File generated by Flopy version 3.3.6 on 07/19/2023 at 13:28:33.
BEGIN OPTIONS
  AUXILIARY  cellgrp
  BOUNDNAMES
  PRINT_INPUT
  PRINT_FLOWS
  SAVE_FLOWS
END OPTIONS

BEGIN DIMENSIONS
  MAXBOUND  2
END DIMENSIONS

BEGIN PERIOD  1
    OPEN/CLOSE  'flow_input/flow.wel_1.txt'
END PERIOD  1

