# File generated by Flopy version 3.3.6 on 07/20/2023 at 11:35:20.
BEGIN options
  BUDGET  FILEOUT  flow.bud
  HEAD  FILEOUT  flow.hds
END options

BEGIN period  1
  SAVE  head  all
  SAVE  budget  all
END period  1

