# File generated by Flopy version 3.3.6 on 07/19/2023 at 13:28:33.
BEGIN options
  BUDGET  FILEOUT  flow.bud
  HEAD  FILEOUT  flow.hds
END options

BEGIN period  1
  SAVE  head  all
  SAVE  budget  all
END period  1

