# File generated by Flopy version 3.3.6 on 07/20/2023 at 11:35:20.
BEGIN OPTIONS
  LIST  flow_output/model.lst
  PRINT_INPUT
  PRINT_FLOWS
  SAVE_FLOWS
END OPTIONS

BEGIN PACKAGES
  dis6  flow.dis  dis
  npf6  flow.npf  npf
  ic6  flow.ic  ic
  chd6  flow.chd  chd
  rch6  flow.rch  rch
  riv6  flow.riv  riv
  sto6  flow.sto  sto
  wel6  flow.wel  wel
  evt6  flow.evt  evt
  oc6  flow.oc  oc
END PACKAGES

