# File generated by Flopy version 3.3.6 on 07/20/2023 at 11:35:20.
BEGIN OPTIONS
  READASARRAYS
  PRINT_INPUT
  PRINT_FLOWS
  SAVE_FLOWS
END OPTIONS

BEGIN PERIOD  1
  recharge
    CONSTANT  2.00000000E-04
END PERIOD  1

