# File generated by Flopy version 3.3.6 on 07/20/2023 at 11:35:20.
BEGIN GRIDDATA
  strt  LAYERED
    OPEN/CLOSE  'flow_input/flow.ic_STRT_1.txt'  FACTOR  1.0
END GRIDDATA

