# File generated by Flopy version 3.3.6 on 07/20/2023 at 11:35:20.
BEGIN OPTIONS
  AUXILIARY  cellgrp
  BOUNDNAMES
  PRINT_INPUT
  PRINT_FLOWS
  SAVE_FLOWS
END OPTIONS

BEGIN DIMENSIONS
  MAXBOUND  31
END DIMENSIONS

BEGIN PERIOD  1
    OPEN/CLOSE  'flow_input/flow.chd_1.txt'
END PERIOD  1

