# File generated by Flopy version 3.3.6 on 07/19/2023 at 13:28:32.
BEGIN OPTIONS
  SAVE_FLOWS
  SAVE_SPECIFIC_DISCHARGE
END OPTIONS

BEGIN GRIDDATA
  icelltype
    CONSTANT  -1
  k  LAYERED
    OPEN/CLOSE  'flow_input/flow.npf_K_1.txt'  FACTOR  1.0
  k33  LAYERED
    CONSTANT       0.10000000
END GRIDDATA

