# File generated by Flopy version 3.3.6 on 07/20/2023 at 11:35:20.
BEGIN OPTIONS
END OPTIONS

BEGIN TIMING
  TDIS6  sim1L.tdis
END TIMING

BEGIN MODELS
  gwf6  flow.nam  flow
END MODELS

BEGIN EXCHANGES
END EXCHANGES

BEGIN SOLUTIONGROUP  1
  MXITER  1
  ims6  sim1L.ims  flow
END SOLUTIONGROUP  1

