# File generated by Flopy version 3.3.6 on 07/20/2023 at 11:35:20.
BEGIN OPTIONS
  COMPLEXITY  complex
END OPTIONS

BEGIN NONLINEAR
  OUTER_DVCLOSE       0.10000000
  OUTER_MAXIMUM  100
END NONLINEAR

BEGIN LINEAR
  INNER_MAXIMUM  500
  INNER_DVCLOSE       0.10000000
END LINEAR

