# File generated by Flopy version 3.3.6 on 07/20/2023 at 11:35:20.
BEGIN OPTIONS
  TIME_UNITS  days
END OPTIONS

BEGIN DIMENSIONS
  NPER  1
END DIMENSIONS

BEGIN PERIODDATA
       1.00000000  1       1.00000000
END PERIODDATA

