BEGIN OPTIONS
  READASARRAYS
  PRINT_INPUT
  PRINT_FLOWS
  SAVE_FLOWS
END OPTIONS

BEGIN PERIOD 1
  RECHARGE
    CONSTANT 0.0002
END PERIOD
