BEGIN OPTIONS
  COMPLEXITY COMPLEX
  CSV_OUTER_OUTPUT FILEOUT ../7aac1e52-3f74-4a79-85a7-23f894f89408/outcon
  CSV_INNER_OUTPUT FILEOUT ../7aac1e52-3f74-4a79-85a7-23f894f89408/inconv
END OPTIONS

BEGIN NONLINEAR
  OUTER_DVCLOSE 0.1
  OUTER_MAXIMUM 100
END NONLINEAR

BEGIN LINEAR
  INNER_MAXIMUM 500
  INNER_DVCLOSE 0.1
END LINEAR
