BEGIN OPTIONS
  PRINT_INPUT
  PRINT_FLOWS
  SAVE_FLOWS
  BOUNDNAMES
  AUXILIARY CELLGRP
END OPTIONS

BEGIN DIMENSIONS
  MAXBOUND 31
END DIMENSIONS

BEGIN PERIOD 1
  OPEN/CLOSE ../0e2bfab2-fcb4-44d4-b3f3-f13d3c9d8d7b/model.chd_1.txt
END PERIOD
