BEGIN OPTIONS
  SAVE_FLOWS
END OPTIONS

BEGIN GRIDDATA
  ICONVERT
    CONSTANT 1
  SS
    CONSTANT 0.0001
  SY
    CONSTANT 0.01
END GRIDDATA

BEGIN PERIOD 1
  STEADY-STATE
END PERIOD
