BEGIN OPTIONS
END OPTIONS

BEGIN TIMING
  TDIS6 ../6b8c7978-9c5b-4de0-935c-768361978070/model.tdis
END TIMING

BEGIN MODELS
  GWF6 ../218a4e54-fb27-4951-855e-0dcbefd2a34f/model.nam flow
END MODELS

BEGIN EXCHANGES
END EXCHANGES

BEGIN SOLUTIONGROUP 1
  MXITER 1
  IMS6 ../45480404-064f-45ca-99fd-ca7ff5828362/model.ims flow
END SOLUTIONGROUP
