BEGIN OPTIONS
  SAVE_FLOWS
  REWET WETFCT 0.1 IWETIT 1 IHDWET 0
  K33OVERK
END OPTIONS

BEGIN GRIDDATA
  ICELLTYPE LAYERED
    CONSTANT -1
    CONSTANT -1
  K LAYERED
    OPEN/CLOSE ../fdd8f793-f44e-4513-9412-9e039d5c4ea2/model.npf_K_1.txt FACTOR 1.0
    OPEN/CLOSE ../fdd8f793-f44e-4513-9412-9e039d5c4ea2/model.npf_K_2.txt FACTOR 1.0
  K33
    OPEN/CLOSE ../fdd8f793-f44e-4513-9412-9e039d5c4ea2/model.npf_K33_1.txt FACTOR 1.0
  WETDRY
    CONSTANT 0.5
END GRIDDATA
