BEGIN OPTIONS
  AUXILIARY CELLGRP
  BOUNDNAMES
  PRINT_INPUT
  PRINT_FLOWS
  SAVE_FLOWS
END OPTIONS

BEGIN DIMENSIONS
  MAXBOUND 2
END DIMENSIONS

BEGIN PERIOD 1
  OPEN/CLOSE ../503fa5be-cd53-4f15-8923-3e0c95474967/model.wel_001.txt
END PERIOD

BEGIN PERIOD 2
  OPEN/CLOSE ../503fa5be-cd53-4f15-8923-3e0c95474967/model.wel_002.txt
END PERIOD

BEGIN PERIOD 3
  OPEN/CLOSE ../503fa5be-cd53-4f15-8923-3e0c95474967/model.wel_003.txt
END PERIOD

BEGIN PERIOD 4
  OPEN/CLOSE ../503fa5be-cd53-4f15-8923-3e0c95474967/model.wel_004.txt
END PERIOD

BEGIN PERIOD 5
  OPEN/CLOSE ../503fa5be-cd53-4f15-8923-3e0c95474967/model.wel_005.txt
END PERIOD

BEGIN PERIOD 6
  OPEN/CLOSE ../503fa5be-cd53-4f15-8923-3e0c95474967/model.wel_006.txt
END PERIOD

BEGIN PERIOD 7
  OPEN/CLOSE ../503fa5be-cd53-4f15-8923-3e0c95474967/model.wel_007.txt
END PERIOD

BEGIN PERIOD 8
  OPEN/CLOSE ../503fa5be-cd53-4f15-8923-3e0c95474967/model.wel_008.txt
END PERIOD

BEGIN PERIOD 9
  OPEN/CLOSE ../503fa5be-cd53-4f15-8923-3e0c95474967/model.wel_009.txt
END PERIOD

BEGIN PERIOD 10
  OPEN/CLOSE ../503fa5be-cd53-4f15-8923-3e0c95474967/model.wel_010.txt
END PERIOD

BEGIN PERIOD 11
  OPEN/CLOSE ../503fa5be-cd53-4f15-8923-3e0c95474967/model.wel_011.txt
END PERIOD

BEGIN PERIOD 12
  OPEN/CLOSE ../503fa5be-cd53-4f15-8923-3e0c95474967/model.wel_012.txt
END PERIOD

BEGIN PERIOD 13
  OPEN/CLOSE ../503fa5be-cd53-4f15-8923-3e0c95474967/model.wel_013.txt
END PERIOD

BEGIN PERIOD 14
  OPEN/CLOSE ../503fa5be-cd53-4f15-8923-3e0c95474967/model.wel_014.txt
END PERIOD

BEGIN PERIOD 15
  OPEN/CLOSE ../503fa5be-cd53-4f15-8923-3e0c95474967/model.wel_015.txt
END PERIOD

BEGIN PERIOD 16
  OPEN/CLOSE ../503fa5be-cd53-4f15-8923-3e0c95474967/model.wel_016.txt
END PERIOD

BEGIN PERIOD 17
  OPEN/CLOSE ../503fa5be-cd53-4f15-8923-3e0c95474967/model.wel_017.txt
END PERIOD

BEGIN PERIOD 18
  OPEN/CLOSE ../503fa5be-cd53-4f15-8923-3e0c95474967/model.wel_018.txt
END PERIOD

BEGIN PERIOD 19
  OPEN/CLOSE ../503fa5be-cd53-4f15-8923-3e0c95474967/model.wel_019.txt
END PERIOD

BEGIN PERIOD 20
  OPEN/CLOSE ../503fa5be-cd53-4f15-8923-3e0c95474967/model.wel_020.txt
END PERIOD

BEGIN PERIOD 21
  OPEN/CLOSE ../503fa5be-cd53-4f15-8923-3e0c95474967/model.wel_021.txt
END PERIOD

BEGIN PERIOD 22
  OPEN/CLOSE ../503fa5be-cd53-4f15-8923-3e0c95474967/model.wel_022.txt
END PERIOD

BEGIN PERIOD 23
  OPEN/CLOSE ../503fa5be-cd53-4f15-8923-3e0c95474967/model.wel_023.txt
END PERIOD

BEGIN PERIOD 24
  OPEN/CLOSE ../503fa5be-cd53-4f15-8923-3e0c95474967/model.wel_024.txt
END PERIOD

BEGIN PERIOD 25
  OPEN/CLOSE ../503fa5be-cd53-4f15-8923-3e0c95474967/model.wel_025.txt
END PERIOD

BEGIN PERIOD 26
  OPEN/CLOSE ../503fa5be-cd53-4f15-8923-3e0c95474967/model.wel_026.txt
END PERIOD

BEGIN PERIOD 27
  OPEN/CLOSE ../503fa5be-cd53-4f15-8923-3e0c95474967/model.wel_027.txt
END PERIOD

BEGIN PERIOD 28
  OPEN/CLOSE ../503fa5be-cd53-4f15-8923-3e0c95474967/model.wel_028.txt
END PERIOD

BEGIN PERIOD 29
  OPEN/CLOSE ../503fa5be-cd53-4f15-8923-3e0c95474967/model.wel_029.txt
END PERIOD

BEGIN PERIOD 30
  OPEN/CLOSE ../503fa5be-cd53-4f15-8923-3e0c95474967/model.wel_030.txt
END PERIOD

BEGIN PERIOD 31
  OPEN/CLOSE ../503fa5be-cd53-4f15-8923-3e0c95474967/model.wel_031.txt
END PERIOD

BEGIN PERIOD 32
  OPEN/CLOSE ../503fa5be-cd53-4f15-8923-3e0c95474967/model.wel_032.txt
END PERIOD

BEGIN PERIOD 33
  OPEN/CLOSE ../503fa5be-cd53-4f15-8923-3e0c95474967/model.wel_033.txt
END PERIOD

BEGIN PERIOD 34
  OPEN/CLOSE ../503fa5be-cd53-4f15-8923-3e0c95474967/model.wel_034.txt
END PERIOD

BEGIN PERIOD 35
  OPEN/CLOSE ../503fa5be-cd53-4f15-8923-3e0c95474967/model.wel_035.txt
END PERIOD

BEGIN PERIOD 36
  OPEN/CLOSE ../503fa5be-cd53-4f15-8923-3e0c95474967/model.wel_036.txt
END PERIOD

BEGIN PERIOD 37
  OPEN/CLOSE ../503fa5be-cd53-4f15-8923-3e0c95474967/model.wel_037.txt
END PERIOD

BEGIN PERIOD 38
  OPEN/CLOSE ../503fa5be-cd53-4f15-8923-3e0c95474967/model.wel_038.txt
END PERIOD

BEGIN PERIOD 39
  OPEN/CLOSE ../503fa5be-cd53-4f15-8923-3e0c95474967/model.wel_039.txt
END PERIOD

BEGIN PERIOD 40
  OPEN/CLOSE ../503fa5be-cd53-4f15-8923-3e0c95474967/model.wel_040.txt
END PERIOD

BEGIN PERIOD 41
  OPEN/CLOSE ../503fa5be-cd53-4f15-8923-3e0c95474967/model.wel_041.txt
END PERIOD

BEGIN PERIOD 42
  OPEN/CLOSE ../503fa5be-cd53-4f15-8923-3e0c95474967/model.wel_042.txt
END PERIOD

BEGIN PERIOD 43
  OPEN/CLOSE ../503fa5be-cd53-4f15-8923-3e0c95474967/model.wel_043.txt
END PERIOD

BEGIN PERIOD 44
  OPEN/CLOSE ../503fa5be-cd53-4f15-8923-3e0c95474967/model.wel_044.txt
END PERIOD

BEGIN PERIOD 45
  OPEN/CLOSE ../503fa5be-cd53-4f15-8923-3e0c95474967/model.wel_045.txt
END PERIOD

BEGIN PERIOD 46
  OPEN/CLOSE ../503fa5be-cd53-4f15-8923-3e0c95474967/model.wel_046.txt
END PERIOD

BEGIN PERIOD 47
  OPEN/CLOSE ../503fa5be-cd53-4f15-8923-3e0c95474967/model.wel_047.txt
END PERIOD

BEGIN PERIOD 48
  OPEN/CLOSE ../503fa5be-cd53-4f15-8923-3e0c95474967/model.wel_048.txt
END PERIOD

BEGIN PERIOD 49
  OPEN/CLOSE ../503fa5be-cd53-4f15-8923-3e0c95474967/model.wel_049.txt
END PERIOD

BEGIN PERIOD 50
  OPEN/CLOSE ../503fa5be-cd53-4f15-8923-3e0c95474967/model.wel_050.txt
END PERIOD

BEGIN PERIOD 51
  OPEN/CLOSE ../503fa5be-cd53-4f15-8923-3e0c95474967/model.wel_051.txt
END PERIOD

BEGIN PERIOD 52
  OPEN/CLOSE ../503fa5be-cd53-4f15-8923-3e0c95474967/model.wel_052.txt
END PERIOD

BEGIN PERIOD 53
  OPEN/CLOSE ../503fa5be-cd53-4f15-8923-3e0c95474967/model.wel_053.txt
END PERIOD

BEGIN PERIOD 54
  OPEN/CLOSE ../503fa5be-cd53-4f15-8923-3e0c95474967/model.wel_054.txt
END PERIOD

BEGIN PERIOD 55
  OPEN/CLOSE ../503fa5be-cd53-4f15-8923-3e0c95474967/model.wel_055.txt
END PERIOD

BEGIN PERIOD 56
  OPEN/CLOSE ../503fa5be-cd53-4f15-8923-3e0c95474967/model.wel_056.txt
END PERIOD

BEGIN PERIOD 57
  OPEN/CLOSE ../503fa5be-cd53-4f15-8923-3e0c95474967/model.wel_057.txt
END PERIOD

BEGIN PERIOD 58
  OPEN/CLOSE ../503fa5be-cd53-4f15-8923-3e0c95474967/model.wel_058.txt
END PERIOD

BEGIN PERIOD 59
  OPEN/CLOSE ../503fa5be-cd53-4f15-8923-3e0c95474967/model.wel_059.txt
END PERIOD

BEGIN PERIOD 60
  OPEN/CLOSE ../503fa5be-cd53-4f15-8923-3e0c95474967/model.wel_060.txt
END PERIOD

BEGIN PERIOD 61
  OPEN/CLOSE ../503fa5be-cd53-4f15-8923-3e0c95474967/model.wel_061.txt
END PERIOD

BEGIN PERIOD 62
  OPEN/CLOSE ../503fa5be-cd53-4f15-8923-3e0c95474967/model.wel_062.txt
END PERIOD

BEGIN PERIOD 63
  OPEN/CLOSE ../503fa5be-cd53-4f15-8923-3e0c95474967/model.wel_063.txt
END PERIOD

BEGIN PERIOD 64
  OPEN/CLOSE ../503fa5be-cd53-4f15-8923-3e0c95474967/model.wel_064.txt
END PERIOD

BEGIN PERIOD 65
  OPEN/CLOSE ../503fa5be-cd53-4f15-8923-3e0c95474967/model.wel_065.txt
END PERIOD

BEGIN PERIOD 66
  OPEN/CLOSE ../503fa5be-cd53-4f15-8923-3e0c95474967/model.wel_066.txt
END PERIOD

BEGIN PERIOD 67
  OPEN/CLOSE ../503fa5be-cd53-4f15-8923-3e0c95474967/model.wel_067.txt
END PERIOD

BEGIN PERIOD 68
  OPEN/CLOSE ../503fa5be-cd53-4f15-8923-3e0c95474967/model.wel_068.txt
END PERIOD

BEGIN PERIOD 69
  OPEN/CLOSE ../503fa5be-cd53-4f15-8923-3e0c95474967/model.wel_069.txt
END PERIOD

BEGIN PERIOD 70
  OPEN/CLOSE ../503fa5be-cd53-4f15-8923-3e0c95474967/model.wel_070.txt
END PERIOD

BEGIN PERIOD 71
  OPEN/CLOSE ../503fa5be-cd53-4f15-8923-3e0c95474967/model.wel_071.txt
END PERIOD

BEGIN PERIOD 72
  OPEN/CLOSE ../503fa5be-cd53-4f15-8923-3e0c95474967/model.wel_072.txt
END PERIOD

BEGIN PERIOD 73
  OPEN/CLOSE ../503fa5be-cd53-4f15-8923-3e0c95474967/model.wel_073.txt
END PERIOD

BEGIN PERIOD 74
  OPEN/CLOSE ../503fa5be-cd53-4f15-8923-3e0c95474967/model.wel_074.txt
END PERIOD

BEGIN PERIOD 75
  OPEN/CLOSE ../503fa5be-cd53-4f15-8923-3e0c95474967/model.wel_075.txt
END PERIOD

BEGIN PERIOD 76
  OPEN/CLOSE ../503fa5be-cd53-4f15-8923-3e0c95474967/model.wel_076.txt
END PERIOD

BEGIN PERIOD 77
  OPEN/CLOSE ../503fa5be-cd53-4f15-8923-3e0c95474967/model.wel_077.txt
END PERIOD

BEGIN PERIOD 78
  OPEN/CLOSE ../503fa5be-cd53-4f15-8923-3e0c95474967/model.wel_078.txt
END PERIOD

BEGIN PERIOD 79
  OPEN/CLOSE ../503fa5be-cd53-4f15-8923-3e0c95474967/model.wel_079.txt
END PERIOD

BEGIN PERIOD 80
  OPEN/CLOSE ../503fa5be-cd53-4f15-8923-3e0c95474967/model.wel_080.txt
END PERIOD

BEGIN PERIOD 81
  OPEN/CLOSE ../503fa5be-cd53-4f15-8923-3e0c95474967/model.wel_081.txt
END PERIOD

BEGIN PERIOD 82
  OPEN/CLOSE ../503fa5be-cd53-4f15-8923-3e0c95474967/model.wel_082.txt
END PERIOD

BEGIN PERIOD 83
  OPEN/CLOSE ../503fa5be-cd53-4f15-8923-3e0c95474967/model.wel_083.txt
END PERIOD

BEGIN PERIOD 84
  OPEN/CLOSE ../503fa5be-cd53-4f15-8923-3e0c95474967/model.wel_084.txt
END PERIOD

BEGIN PERIOD 85
  OPEN/CLOSE ../503fa5be-cd53-4f15-8923-3e0c95474967/model.wel_085.txt
END PERIOD

BEGIN PERIOD 86
  OPEN/CLOSE ../503fa5be-cd53-4f15-8923-3e0c95474967/model.wel_086.txt
END PERIOD

BEGIN PERIOD 87
  OPEN/CLOSE ../503fa5be-cd53-4f15-8923-3e0c95474967/model.wel_087.txt
END PERIOD

BEGIN PERIOD 88
  OPEN/CLOSE ../503fa5be-cd53-4f15-8923-3e0c95474967/model.wel_088.txt
END PERIOD

BEGIN PERIOD 89
  OPEN/CLOSE ../503fa5be-cd53-4f15-8923-3e0c95474967/model.wel_089.txt
END PERIOD

BEGIN PERIOD 90
  OPEN/CLOSE ../503fa5be-cd53-4f15-8923-3e0c95474967/model.wel_090.txt
END PERIOD

BEGIN PERIOD 91
  OPEN/CLOSE ../503fa5be-cd53-4f15-8923-3e0c95474967/model.wel_091.txt
END PERIOD

BEGIN PERIOD 92
  OPEN/CLOSE ../503fa5be-cd53-4f15-8923-3e0c95474967/model.wel_092.txt
END PERIOD

BEGIN PERIOD 93
  OPEN/CLOSE ../503fa5be-cd53-4f15-8923-3e0c95474967/model.wel_093.txt
END PERIOD

BEGIN PERIOD 94
  OPEN/CLOSE ../503fa5be-cd53-4f15-8923-3e0c95474967/model.wel_094.txt
END PERIOD

BEGIN PERIOD 95
  OPEN/CLOSE ../503fa5be-cd53-4f15-8923-3e0c95474967/model.wel_095.txt
END PERIOD

BEGIN PERIOD 96
  OPEN/CLOSE ../503fa5be-cd53-4f15-8923-3e0c95474967/model.wel_096.txt
END PERIOD

BEGIN PERIOD 97
  OPEN/CLOSE ../503fa5be-cd53-4f15-8923-3e0c95474967/model.wel_097.txt
END PERIOD

BEGIN PERIOD 98
  OPEN/CLOSE ../503fa5be-cd53-4f15-8923-3e0c95474967/model.wel_098.txt
END PERIOD

BEGIN PERIOD 99
  OPEN/CLOSE ../503fa5be-cd53-4f15-8923-3e0c95474967/model.wel_099.txt
END PERIOD

BEGIN PERIOD 100
  OPEN/CLOSE ../503fa5be-cd53-4f15-8923-3e0c95474967/model.wel_100.txt
END PERIOD

BEGIN PERIOD 101
  OPEN/CLOSE ../503fa5be-cd53-4f15-8923-3e0c95474967/model.wel_101.txt
END PERIOD

BEGIN PERIOD 102
  OPEN/CLOSE ../503fa5be-cd53-4f15-8923-3e0c95474967/model.wel_102.txt
END PERIOD

BEGIN PERIOD 103
  OPEN/CLOSE ../503fa5be-cd53-4f15-8923-3e0c95474967/model.wel_103.txt
END PERIOD

BEGIN PERIOD 104
  OPEN/CLOSE ../503fa5be-cd53-4f15-8923-3e0c95474967/model.wel_104.txt
END PERIOD

BEGIN PERIOD 105
  OPEN/CLOSE ../503fa5be-cd53-4f15-8923-3e0c95474967/model.wel_105.txt
END PERIOD

BEGIN PERIOD 106
  OPEN/CLOSE ../503fa5be-cd53-4f15-8923-3e0c95474967/model.wel_106.txt
END PERIOD

BEGIN PERIOD 107
  OPEN/CLOSE ../503fa5be-cd53-4f15-8923-3e0c95474967/model.wel_107.txt
END PERIOD

BEGIN PERIOD 108
  OPEN/CLOSE ../503fa5be-cd53-4f15-8923-3e0c95474967/model.wel_108.txt
END PERIOD

BEGIN PERIOD 109
  OPEN/CLOSE ../503fa5be-cd53-4f15-8923-3e0c95474967/model.wel_109.txt
END PERIOD

BEGIN PERIOD 110
  OPEN/CLOSE ../503fa5be-cd53-4f15-8923-3e0c95474967/model.wel_110.txt
END PERIOD

BEGIN PERIOD 111
  OPEN/CLOSE ../503fa5be-cd53-4f15-8923-3e0c95474967/model.wel_111.txt
END PERIOD

BEGIN PERIOD 112
  OPEN/CLOSE ../503fa5be-cd53-4f15-8923-3e0c95474967/model.wel_112.txt
END PERIOD

BEGIN PERIOD 113
  OPEN/CLOSE ../503fa5be-cd53-4f15-8923-3e0c95474967/model.wel_113.txt
END PERIOD

BEGIN PERIOD 114
  OPEN/CLOSE ../503fa5be-cd53-4f15-8923-3e0c95474967/model.wel_114.txt
END PERIOD

BEGIN PERIOD 115
  OPEN/CLOSE ../503fa5be-cd53-4f15-8923-3e0c95474967/model.wel_115.txt
END PERIOD

BEGIN PERIOD 116
  OPEN/CLOSE ../503fa5be-cd53-4f15-8923-3e0c95474967/model.wel_116.txt
END PERIOD

BEGIN PERIOD 117
  OPEN/CLOSE ../503fa5be-cd53-4f15-8923-3e0c95474967/model.wel_117.txt
END PERIOD

BEGIN PERIOD 118
  OPEN/CLOSE ../503fa5be-cd53-4f15-8923-3e0c95474967/model.wel_118.txt
END PERIOD

BEGIN PERIOD 119
  OPEN/CLOSE ../503fa5be-cd53-4f15-8923-3e0c95474967/model.wel_119.txt
END PERIOD

BEGIN PERIOD 120
  OPEN/CLOSE ../503fa5be-cd53-4f15-8923-3e0c95474967/model.wel_120.txt
END PERIOD

BEGIN PERIOD 121
  OPEN/CLOSE ../503fa5be-cd53-4f15-8923-3e0c95474967/model.wel_121.txt
END PERIOD

BEGIN PERIOD 122
  OPEN/CLOSE ../503fa5be-cd53-4f15-8923-3e0c95474967/model.wel_122.txt
END PERIOD

BEGIN PERIOD 123
  OPEN/CLOSE ../503fa5be-cd53-4f15-8923-3e0c95474967/model.wel_123.txt
END PERIOD

BEGIN PERIOD 124
  OPEN/CLOSE ../503fa5be-cd53-4f15-8923-3e0c95474967/model.wel_124.txt
END PERIOD

BEGIN PERIOD 125
  OPEN/CLOSE ../503fa5be-cd53-4f15-8923-3e0c95474967/model.wel_125.txt
END PERIOD

BEGIN PERIOD 126
  OPEN/CLOSE ../503fa5be-cd53-4f15-8923-3e0c95474967/model.wel_126.txt
END PERIOD

BEGIN PERIOD 127
  OPEN/CLOSE ../503fa5be-cd53-4f15-8923-3e0c95474967/model.wel_127.txt
END PERIOD

BEGIN PERIOD 128
  OPEN/CLOSE ../503fa5be-cd53-4f15-8923-3e0c95474967/model.wel_128.txt
END PERIOD

BEGIN PERIOD 129
  OPEN/CLOSE ../503fa5be-cd53-4f15-8923-3e0c95474967/model.wel_129.txt
END PERIOD

BEGIN PERIOD 130
  OPEN/CLOSE ../503fa5be-cd53-4f15-8923-3e0c95474967/model.wel_130.txt
END PERIOD

BEGIN PERIOD 131
  OPEN/CLOSE ../503fa5be-cd53-4f15-8923-3e0c95474967/model.wel_131.txt
END PERIOD

BEGIN PERIOD 132
  OPEN/CLOSE ../503fa5be-cd53-4f15-8923-3e0c95474967/model.wel_132.txt
END PERIOD

BEGIN PERIOD 133
  OPEN/CLOSE ../503fa5be-cd53-4f15-8923-3e0c95474967/model.wel_133.txt
END PERIOD

BEGIN PERIOD 134
  OPEN/CLOSE ../503fa5be-cd53-4f15-8923-3e0c95474967/model.wel_134.txt
END PERIOD

BEGIN PERIOD 135
  OPEN/CLOSE ../503fa5be-cd53-4f15-8923-3e0c95474967/model.wel_135.txt
END PERIOD

BEGIN PERIOD 136
  OPEN/CLOSE ../503fa5be-cd53-4f15-8923-3e0c95474967/model.wel_136.txt
END PERIOD

BEGIN PERIOD 137
  OPEN/CLOSE ../503fa5be-cd53-4f15-8923-3e0c95474967/model.wel_137.txt
END PERIOD

BEGIN PERIOD 138
  OPEN/CLOSE ../503fa5be-cd53-4f15-8923-3e0c95474967/model.wel_138.txt
END PERIOD

BEGIN PERIOD 139
  OPEN/CLOSE ../503fa5be-cd53-4f15-8923-3e0c95474967/model.wel_139.txt
END PERIOD

BEGIN PERIOD 140
  OPEN/CLOSE ../503fa5be-cd53-4f15-8923-3e0c95474967/model.wel_140.txt
END PERIOD

BEGIN PERIOD 141
  OPEN/CLOSE ../503fa5be-cd53-4f15-8923-3e0c95474967/model.wel_141.txt
END PERIOD

BEGIN PERIOD 142
  OPEN/CLOSE ../503fa5be-cd53-4f15-8923-3e0c95474967/model.wel_142.txt
END PERIOD

BEGIN PERIOD 143
  OPEN/CLOSE ../503fa5be-cd53-4f15-8923-3e0c95474967/model.wel_143.txt
END PERIOD

BEGIN PERIOD 144
  OPEN/CLOSE ../503fa5be-cd53-4f15-8923-3e0c95474967/model.wel_144.txt
END PERIOD

BEGIN PERIOD 145
  OPEN/CLOSE ../503fa5be-cd53-4f15-8923-3e0c95474967/model.wel_145.txt
END PERIOD

BEGIN PERIOD 146
  OPEN/CLOSE ../503fa5be-cd53-4f15-8923-3e0c95474967/model.wel_146.txt
END PERIOD

BEGIN PERIOD 147
  OPEN/CLOSE ../503fa5be-cd53-4f15-8923-3e0c95474967/model.wel_147.txt
END PERIOD

BEGIN PERIOD 148
  OPEN/CLOSE ../503fa5be-cd53-4f15-8923-3e0c95474967/model.wel_148.txt
END PERIOD

BEGIN PERIOD 149
  OPEN/CLOSE ../503fa5be-cd53-4f15-8923-3e0c95474967/model.wel_149.txt
END PERIOD

BEGIN PERIOD 150
  OPEN/CLOSE ../503fa5be-cd53-4f15-8923-3e0c95474967/model.wel_150.txt
END PERIOD

BEGIN PERIOD 151
  OPEN/CLOSE ../503fa5be-cd53-4f15-8923-3e0c95474967/model.wel_151.txt
END PERIOD

BEGIN PERIOD 152
  OPEN/CLOSE ../503fa5be-cd53-4f15-8923-3e0c95474967/model.wel_152.txt
END PERIOD

BEGIN PERIOD 153
  OPEN/CLOSE ../503fa5be-cd53-4f15-8923-3e0c95474967/model.wel_153.txt
END PERIOD

BEGIN PERIOD 154
  OPEN/CLOSE ../503fa5be-cd53-4f15-8923-3e0c95474967/model.wel_154.txt
END PERIOD

BEGIN PERIOD 155
  OPEN/CLOSE ../503fa5be-cd53-4f15-8923-3e0c95474967/model.wel_155.txt
END PERIOD

BEGIN PERIOD 156
  OPEN/CLOSE ../503fa5be-cd53-4f15-8923-3e0c95474967/model.wel_156.txt
END PERIOD

BEGIN PERIOD 157
  OPEN/CLOSE ../503fa5be-cd53-4f15-8923-3e0c95474967/model.wel_157.txt
END PERIOD

BEGIN PERIOD 158
  OPEN/CLOSE ../503fa5be-cd53-4f15-8923-3e0c95474967/model.wel_158.txt
END PERIOD

BEGIN PERIOD 159
  OPEN/CLOSE ../503fa5be-cd53-4f15-8923-3e0c95474967/model.wel_159.txt
END PERIOD

BEGIN PERIOD 160
  OPEN/CLOSE ../503fa5be-cd53-4f15-8923-3e0c95474967/model.wel_160.txt
END PERIOD

BEGIN PERIOD 161
  OPEN/CLOSE ../503fa5be-cd53-4f15-8923-3e0c95474967/model.wel_161.txt
END PERIOD

BEGIN PERIOD 162
  OPEN/CLOSE ../503fa5be-cd53-4f15-8923-3e0c95474967/model.wel_162.txt
END PERIOD

BEGIN PERIOD 163
  OPEN/CLOSE ../503fa5be-cd53-4f15-8923-3e0c95474967/model.wel_163.txt
END PERIOD

BEGIN PERIOD 164
  OPEN/CLOSE ../503fa5be-cd53-4f15-8923-3e0c95474967/model.wel_164.txt
END PERIOD

BEGIN PERIOD 165
  OPEN/CLOSE ../503fa5be-cd53-4f15-8923-3e0c95474967/model.wel_165.txt
END PERIOD

BEGIN PERIOD 166
  OPEN/CLOSE ../503fa5be-cd53-4f15-8923-3e0c95474967/model.wel_166.txt
END PERIOD

BEGIN PERIOD 167
  OPEN/CLOSE ../503fa5be-cd53-4f15-8923-3e0c95474967/model.wel_167.txt
END PERIOD

BEGIN PERIOD 168
  OPEN/CLOSE ../503fa5be-cd53-4f15-8923-3e0c95474967/model.wel_168.txt
END PERIOD

BEGIN PERIOD 169
  OPEN/CLOSE ../503fa5be-cd53-4f15-8923-3e0c95474967/model.wel_169.txt
END PERIOD

BEGIN PERIOD 170
  OPEN/CLOSE ../503fa5be-cd53-4f15-8923-3e0c95474967/model.wel_170.txt
END PERIOD

BEGIN PERIOD 171
  OPEN/CLOSE ../503fa5be-cd53-4f15-8923-3e0c95474967/model.wel_171.txt
END PERIOD

BEGIN PERIOD 172
  OPEN/CLOSE ../503fa5be-cd53-4f15-8923-3e0c95474967/model.wel_172.txt
END PERIOD

BEGIN PERIOD 173
  OPEN/CLOSE ../503fa5be-cd53-4f15-8923-3e0c95474967/model.wel_173.txt
END PERIOD

BEGIN PERIOD 174
  OPEN/CLOSE ../503fa5be-cd53-4f15-8923-3e0c95474967/model.wel_174.txt
END PERIOD

BEGIN PERIOD 175
  OPEN/CLOSE ../503fa5be-cd53-4f15-8923-3e0c95474967/model.wel_175.txt
END PERIOD

BEGIN PERIOD 176
  OPEN/CLOSE ../503fa5be-cd53-4f15-8923-3e0c95474967/model.wel_176.txt
END PERIOD

BEGIN PERIOD 177
  OPEN/CLOSE ../503fa5be-cd53-4f15-8923-3e0c95474967/model.wel_177.txt
END PERIOD

BEGIN PERIOD 178
  OPEN/CLOSE ../503fa5be-cd53-4f15-8923-3e0c95474967/model.wel_178.txt
END PERIOD

BEGIN PERIOD 179
  OPEN/CLOSE ../503fa5be-cd53-4f15-8923-3e0c95474967/model.wel_179.txt
END PERIOD

BEGIN PERIOD 180
  OPEN/CLOSE ../503fa5be-cd53-4f15-8923-3e0c95474967/model.wel_180.txt
END PERIOD

BEGIN PERIOD 181
  OPEN/CLOSE ../503fa5be-cd53-4f15-8923-3e0c95474967/model.wel_181.txt
END PERIOD

BEGIN PERIOD 182
  OPEN/CLOSE ../503fa5be-cd53-4f15-8923-3e0c95474967/model.wel_182.txt
END PERIOD

BEGIN PERIOD 183
  OPEN/CLOSE ../503fa5be-cd53-4f15-8923-3e0c95474967/model.wel_183.txt
END PERIOD

BEGIN PERIOD 184
  OPEN/CLOSE ../503fa5be-cd53-4f15-8923-3e0c95474967/model.wel_184.txt
END PERIOD

BEGIN PERIOD 185
  OPEN/CLOSE ../503fa5be-cd53-4f15-8923-3e0c95474967/model.wel_185.txt
END PERIOD

BEGIN PERIOD 186
  OPEN/CLOSE ../503fa5be-cd53-4f15-8923-3e0c95474967/model.wel_186.txt
END PERIOD

BEGIN PERIOD 187
  OPEN/CLOSE ../503fa5be-cd53-4f15-8923-3e0c95474967/model.wel_187.txt
END PERIOD

BEGIN PERIOD 188
  OPEN/CLOSE ../503fa5be-cd53-4f15-8923-3e0c95474967/model.wel_188.txt
END PERIOD

BEGIN PERIOD 189
  OPEN/CLOSE ../503fa5be-cd53-4f15-8923-3e0c95474967/model.wel_189.txt
END PERIOD

BEGIN PERIOD 190
  OPEN/CLOSE ../503fa5be-cd53-4f15-8923-3e0c95474967/model.wel_190.txt
END PERIOD

BEGIN PERIOD 191
  OPEN/CLOSE ../503fa5be-cd53-4f15-8923-3e0c95474967/model.wel_191.txt
END PERIOD

BEGIN PERIOD 192
  OPEN/CLOSE ../503fa5be-cd53-4f15-8923-3e0c95474967/model.wel_192.txt
END PERIOD

BEGIN PERIOD 193
  OPEN/CLOSE ../503fa5be-cd53-4f15-8923-3e0c95474967/model.wel_193.txt
END PERIOD

BEGIN PERIOD 194
  OPEN/CLOSE ../503fa5be-cd53-4f15-8923-3e0c95474967/model.wel_194.txt
END PERIOD

BEGIN PERIOD 195
  OPEN/CLOSE ../503fa5be-cd53-4f15-8923-3e0c95474967/model.wel_195.txt
END PERIOD

BEGIN PERIOD 196
  OPEN/CLOSE ../503fa5be-cd53-4f15-8923-3e0c95474967/model.wel_196.txt
END PERIOD

BEGIN PERIOD 197
  OPEN/CLOSE ../503fa5be-cd53-4f15-8923-3e0c95474967/model.wel_197.txt
END PERIOD

BEGIN PERIOD 198
  OPEN/CLOSE ../503fa5be-cd53-4f15-8923-3e0c95474967/model.wel_198.txt
END PERIOD

BEGIN PERIOD 199
  OPEN/CLOSE ../503fa5be-cd53-4f15-8923-3e0c95474967/model.wel_199.txt
END PERIOD

BEGIN PERIOD 200
  OPEN/CLOSE ../503fa5be-cd53-4f15-8923-3e0c95474967/model.wel_200.txt
END PERIOD

BEGIN PERIOD 201
  OPEN/CLOSE ../503fa5be-cd53-4f15-8923-3e0c95474967/model.wel_201.txt
END PERIOD

BEGIN PERIOD 202
  OPEN/CLOSE ../503fa5be-cd53-4f15-8923-3e0c95474967/model.wel_202.txt
END PERIOD

BEGIN PERIOD 203
  OPEN/CLOSE ../503fa5be-cd53-4f15-8923-3e0c95474967/model.wel_203.txt
END PERIOD

BEGIN PERIOD 204
  OPEN/CLOSE ../503fa5be-cd53-4f15-8923-3e0c95474967/model.wel_204.txt
END PERIOD

BEGIN PERIOD 205
  OPEN/CLOSE ../503fa5be-cd53-4f15-8923-3e0c95474967/model.wel_205.txt
END PERIOD

BEGIN PERIOD 206
  OPEN/CLOSE ../503fa5be-cd53-4f15-8923-3e0c95474967/model.wel_206.txt
END PERIOD

BEGIN PERIOD 207
  OPEN/CLOSE ../503fa5be-cd53-4f15-8923-3e0c95474967/model.wel_207.txt
END PERIOD

BEGIN PERIOD 208
  OPEN/CLOSE ../503fa5be-cd53-4f15-8923-3e0c95474967/model.wel_208.txt
END PERIOD

BEGIN PERIOD 209
  OPEN/CLOSE ../503fa5be-cd53-4f15-8923-3e0c95474967/model.wel_209.txt
END PERIOD

BEGIN PERIOD 210
  OPEN/CLOSE ../503fa5be-cd53-4f15-8923-3e0c95474967/model.wel_210.txt
END PERIOD

BEGIN PERIOD 211
  OPEN/CLOSE ../503fa5be-cd53-4f15-8923-3e0c95474967/model.wel_211.txt
END PERIOD

BEGIN PERIOD 212
  OPEN/CLOSE ../503fa5be-cd53-4f15-8923-3e0c95474967/model.wel_212.txt
END PERIOD

BEGIN PERIOD 213
  OPEN/CLOSE ../503fa5be-cd53-4f15-8923-3e0c95474967/model.wel_213.txt
END PERIOD

BEGIN PERIOD 214
  OPEN/CLOSE ../503fa5be-cd53-4f15-8923-3e0c95474967/model.wel_214.txt
END PERIOD

BEGIN PERIOD 215
  OPEN/CLOSE ../503fa5be-cd53-4f15-8923-3e0c95474967/model.wel_215.txt
END PERIOD

BEGIN PERIOD 216
  OPEN/CLOSE ../503fa5be-cd53-4f15-8923-3e0c95474967/model.wel_216.txt
END PERIOD

BEGIN PERIOD 217
  OPEN/CLOSE ../503fa5be-cd53-4f15-8923-3e0c95474967/model.wel_217.txt
END PERIOD

BEGIN PERIOD 218
  OPEN/CLOSE ../503fa5be-cd53-4f15-8923-3e0c95474967/model.wel_218.txt
END PERIOD

BEGIN PERIOD 219
  OPEN/CLOSE ../503fa5be-cd53-4f15-8923-3e0c95474967/model.wel_219.txt
END PERIOD

BEGIN PERIOD 220
  OPEN/CLOSE ../503fa5be-cd53-4f15-8923-3e0c95474967/model.wel_220.txt
END PERIOD

BEGIN PERIOD 221
  OPEN/CLOSE ../503fa5be-cd53-4f15-8923-3e0c95474967/model.wel_221.txt
END PERIOD

BEGIN PERIOD 222
  OPEN/CLOSE ../503fa5be-cd53-4f15-8923-3e0c95474967/model.wel_222.txt
END PERIOD

BEGIN PERIOD 223
  OPEN/CLOSE ../503fa5be-cd53-4f15-8923-3e0c95474967/model.wel_223.txt
END PERIOD

BEGIN PERIOD 224
  OPEN/CLOSE ../503fa5be-cd53-4f15-8923-3e0c95474967/model.wel_224.txt
END PERIOD

BEGIN PERIOD 225
  OPEN/CLOSE ../503fa5be-cd53-4f15-8923-3e0c95474967/model.wel_225.txt
END PERIOD

BEGIN PERIOD 226
  OPEN/CLOSE ../503fa5be-cd53-4f15-8923-3e0c95474967/model.wel_226.txt
END PERIOD

BEGIN PERIOD 227
  OPEN/CLOSE ../503fa5be-cd53-4f15-8923-3e0c95474967/model.wel_227.txt
END PERIOD

BEGIN PERIOD 228
  OPEN/CLOSE ../503fa5be-cd53-4f15-8923-3e0c95474967/model.wel_228.txt
END PERIOD

BEGIN PERIOD 229
  OPEN/CLOSE ../503fa5be-cd53-4f15-8923-3e0c95474967/model.wel_229.txt
END PERIOD

BEGIN PERIOD 230
  OPEN/CLOSE ../503fa5be-cd53-4f15-8923-3e0c95474967/model.wel_230.txt
END PERIOD

BEGIN PERIOD 231
  OPEN/CLOSE ../503fa5be-cd53-4f15-8923-3e0c95474967/model.wel_231.txt
END PERIOD

BEGIN PERIOD 232
  OPEN/CLOSE ../503fa5be-cd53-4f15-8923-3e0c95474967/model.wel_232.txt
END PERIOD

BEGIN PERIOD 233
  OPEN/CLOSE ../503fa5be-cd53-4f15-8923-3e0c95474967/model.wel_233.txt
END PERIOD

BEGIN PERIOD 234
  OPEN/CLOSE ../503fa5be-cd53-4f15-8923-3e0c95474967/model.wel_234.txt
END PERIOD

BEGIN PERIOD 235
  OPEN/CLOSE ../503fa5be-cd53-4f15-8923-3e0c95474967/model.wel_235.txt
END PERIOD

BEGIN PERIOD 236
  OPEN/CLOSE ../503fa5be-cd53-4f15-8923-3e0c95474967/model.wel_236.txt
END PERIOD

BEGIN PERIOD 237
  OPEN/CLOSE ../503fa5be-cd53-4f15-8923-3e0c95474967/model.wel_237.txt
END PERIOD

BEGIN PERIOD 238
  OPEN/CLOSE ../503fa5be-cd53-4f15-8923-3e0c95474967/model.wel_238.txt
END PERIOD

BEGIN PERIOD 239
  OPEN/CLOSE ../503fa5be-cd53-4f15-8923-3e0c95474967/model.wel_239.txt
END PERIOD

BEGIN PERIOD 240
  OPEN/CLOSE ../503fa5be-cd53-4f15-8923-3e0c95474967/model.wel_240.txt
END PERIOD

BEGIN PERIOD 241
  OPEN/CLOSE ../503fa5be-cd53-4f15-8923-3e0c95474967/model.wel_241.txt
END PERIOD

BEGIN PERIOD 242
  OPEN/CLOSE ../503fa5be-cd53-4f15-8923-3e0c95474967/model.wel_242.txt
END PERIOD

BEGIN PERIOD 243
  OPEN/CLOSE ../503fa5be-cd53-4f15-8923-3e0c95474967/model.wel_243.txt
END PERIOD

BEGIN PERIOD 244
  OPEN/CLOSE ../503fa5be-cd53-4f15-8923-3e0c95474967/model.wel_244.txt
END PERIOD

BEGIN PERIOD 245
  OPEN/CLOSE ../503fa5be-cd53-4f15-8923-3e0c95474967/model.wel_245.txt
END PERIOD

BEGIN PERIOD 246
  OPEN/CLOSE ../503fa5be-cd53-4f15-8923-3e0c95474967/model.wel_246.txt
END PERIOD

BEGIN PERIOD 247
  OPEN/CLOSE ../503fa5be-cd53-4f15-8923-3e0c95474967/model.wel_247.txt
END PERIOD

BEGIN PERIOD 248
  OPEN/CLOSE ../503fa5be-cd53-4f15-8923-3e0c95474967/model.wel_248.txt
END PERIOD

BEGIN PERIOD 249
  OPEN/CLOSE ../503fa5be-cd53-4f15-8923-3e0c95474967/model.wel_249.txt
END PERIOD

BEGIN PERIOD 250
  OPEN/CLOSE ../503fa5be-cd53-4f15-8923-3e0c95474967/model.wel_250.txt
END PERIOD

BEGIN PERIOD 251
  OPEN/CLOSE ../503fa5be-cd53-4f15-8923-3e0c95474967/model.wel_251.txt
END PERIOD

BEGIN PERIOD 252
  OPEN/CLOSE ../503fa5be-cd53-4f15-8923-3e0c95474967/model.wel_252.txt
END PERIOD

BEGIN PERIOD 253
  OPEN/CLOSE ../503fa5be-cd53-4f15-8923-3e0c95474967/model.wel_253.txt
END PERIOD

BEGIN PERIOD 254
  OPEN/CLOSE ../503fa5be-cd53-4f15-8923-3e0c95474967/model.wel_254.txt
END PERIOD

BEGIN PERIOD 255
  OPEN/CLOSE ../503fa5be-cd53-4f15-8923-3e0c95474967/model.wel_255.txt
END PERIOD

BEGIN PERIOD 256
  OPEN/CLOSE ../503fa5be-cd53-4f15-8923-3e0c95474967/model.wel_256.txt
END PERIOD

BEGIN PERIOD 257
  OPEN/CLOSE ../503fa5be-cd53-4f15-8923-3e0c95474967/model.wel_257.txt
END PERIOD

BEGIN PERIOD 258
  OPEN/CLOSE ../503fa5be-cd53-4f15-8923-3e0c95474967/model.wel_258.txt
END PERIOD

BEGIN PERIOD 259
  OPEN/CLOSE ../503fa5be-cd53-4f15-8923-3e0c95474967/model.wel_259.txt
END PERIOD

BEGIN PERIOD 260
  OPEN/CLOSE ../503fa5be-cd53-4f15-8923-3e0c95474967/model.wel_260.txt
END PERIOD

BEGIN PERIOD 261
  OPEN/CLOSE ../503fa5be-cd53-4f15-8923-3e0c95474967/model.wel_261.txt
END PERIOD

BEGIN PERIOD 262
  OPEN/CLOSE ../503fa5be-cd53-4f15-8923-3e0c95474967/model.wel_262.txt
END PERIOD

BEGIN PERIOD 263
  OPEN/CLOSE ../503fa5be-cd53-4f15-8923-3e0c95474967/model.wel_263.txt
END PERIOD

BEGIN PERIOD 264
  OPEN/CLOSE ../503fa5be-cd53-4f15-8923-3e0c95474967/model.wel_264.txt
END PERIOD

BEGIN PERIOD 265
  OPEN/CLOSE ../503fa5be-cd53-4f15-8923-3e0c95474967/model.wel_265.txt
END PERIOD

BEGIN PERIOD 266
  OPEN/CLOSE ../503fa5be-cd53-4f15-8923-3e0c95474967/model.wel_266.txt
END PERIOD

BEGIN PERIOD 267
  OPEN/CLOSE ../503fa5be-cd53-4f15-8923-3e0c95474967/model.wel_267.txt
END PERIOD

BEGIN PERIOD 268
  OPEN/CLOSE ../503fa5be-cd53-4f15-8923-3e0c95474967/model.wel_268.txt
END PERIOD

BEGIN PERIOD 269
  OPEN/CLOSE ../503fa5be-cd53-4f15-8923-3e0c95474967/model.wel_269.txt
END PERIOD

BEGIN PERIOD 270
  OPEN/CLOSE ../503fa5be-cd53-4f15-8923-3e0c95474967/model.wel_270.txt
END PERIOD

BEGIN PERIOD 271
  OPEN/CLOSE ../503fa5be-cd53-4f15-8923-3e0c95474967/model.wel_271.txt
END PERIOD

BEGIN PERIOD 272
  OPEN/CLOSE ../503fa5be-cd53-4f15-8923-3e0c95474967/model.wel_272.txt
END PERIOD

BEGIN PERIOD 273
  OPEN/CLOSE ../503fa5be-cd53-4f15-8923-3e0c95474967/model.wel_273.txt
END PERIOD

BEGIN PERIOD 274
  OPEN/CLOSE ../503fa5be-cd53-4f15-8923-3e0c95474967/model.wel_274.txt
END PERIOD

BEGIN PERIOD 275
  OPEN/CLOSE ../503fa5be-cd53-4f15-8923-3e0c95474967/model.wel_275.txt
END PERIOD

BEGIN PERIOD 276
  OPEN/CLOSE ../503fa5be-cd53-4f15-8923-3e0c95474967/model.wel_276.txt
END PERIOD

BEGIN PERIOD 277
  OPEN/CLOSE ../503fa5be-cd53-4f15-8923-3e0c95474967/model.wel_277.txt
END PERIOD

BEGIN PERIOD 278
  OPEN/CLOSE ../503fa5be-cd53-4f15-8923-3e0c95474967/model.wel_278.txt
END PERIOD

BEGIN PERIOD 279
  OPEN/CLOSE ../503fa5be-cd53-4f15-8923-3e0c95474967/model.wel_279.txt
END PERIOD

BEGIN PERIOD 280
  OPEN/CLOSE ../503fa5be-cd53-4f15-8923-3e0c95474967/model.wel_280.txt
END PERIOD

BEGIN PERIOD 281
  OPEN/CLOSE ../503fa5be-cd53-4f15-8923-3e0c95474967/model.wel_281.txt
END PERIOD

BEGIN PERIOD 282
  OPEN/CLOSE ../503fa5be-cd53-4f15-8923-3e0c95474967/model.wel_282.txt
END PERIOD

BEGIN PERIOD 283
  OPEN/CLOSE ../503fa5be-cd53-4f15-8923-3e0c95474967/model.wel_283.txt
END PERIOD

BEGIN PERIOD 284
  OPEN/CLOSE ../503fa5be-cd53-4f15-8923-3e0c95474967/model.wel_284.txt
END PERIOD

BEGIN PERIOD 285
  OPEN/CLOSE ../503fa5be-cd53-4f15-8923-3e0c95474967/model.wel_285.txt
END PERIOD

BEGIN PERIOD 286
  OPEN/CLOSE ../503fa5be-cd53-4f15-8923-3e0c95474967/model.wel_286.txt
END PERIOD

BEGIN PERIOD 287
  OPEN/CLOSE ../503fa5be-cd53-4f15-8923-3e0c95474967/model.wel_287.txt
END PERIOD

BEGIN PERIOD 288
  OPEN/CLOSE ../503fa5be-cd53-4f15-8923-3e0c95474967/model.wel_288.txt