BEGIN OPTIONS
  PRINT_INPUT
  PRINT_FLOWS
  SAVE_FLOWS
  BOUNDNAMES
  AUXILIARY CELLGRP
END OPTIONS

BEGIN DIMENSIONS
  MAXBOUND 62
END DIMENSIONS

BEGIN PERIOD 1
  OPEN/CLOSE ../1d230b9c-cb60-469b-a5f0-0ca76d91e8d3/model.chd_1.txt
END PERIOD
