BEGIN OPTIONS
  PRINT_INPUT
  PRINT_FLOWS
  SAVE_FLOWS
  BOUNDNAMES
  AUXILIARY CELLGRP
END OPTIONS

BEGIN DIMENSIONS
  MAXBOUND 344
END DIMENSIONS

BEGIN PERIOD 1
  OPEN/CLOSE ../8c15e20e-72c4-43ce-ab9c-dbbc8c69fdd1/model.riv_1.txt
END PERIOD
