BEGIN OPTIONS
  LENGTH_UNITS METERS
  XORIGIN 0.0
  YORIGIN 0.0
  ANGROT 0.0
END OPTIONS

BEGIN DIMENSIONS
  NLAY 1
  NROW 100
  NCOL 250
END DIMENSIONS

BEGIN GRIDDATA
  DELR
    CONSTANT 20.0
  DELC
    CONSTANT 20.0
  TOP
    CONSTANT 15.0
  BOTM LAYERED
    CONSTANT 0.0
  IDOMAIN LAYERED
    OPEN/CLOSE ../2e932b8b-4074-4269-aeb7-62a15a979aab/model.dis_IDOMAIN_1.txt FACTOR 1
END GRIDDATA
