BEGIN OPTIONS
  READASARRAYS
  PRINT_INPUT
  PRINT_FLOWS
  SAVE_FLOWS
END OPTIONS

BEGIN PERIOD 1
  SURFACE
    CONSTANT 14.5
  RATE
    CONSTANT 0.0017256
  DEPTH
    CONSTANT 5.0
END PERIOD
