BEGIN OPTIONS
  LIST model.lst
  PRINT_INPUT
  PRINT_FLOWS
  SAVE_FLOWS
END OPTIONS

BEGIN PACKAGES
  DIS6 ../698b67f1-f70b-4153-aece-b690cff28941/model.dis 'DIS'
  NPF6 ../33cc76fc-1617-45b8-b3b7-569916e8fda8/model.npf 'NPF'
  IC6 ../2547c1e6-9b9f-4160-a079-425394d08fa1/model.ic 'IC'
  CHD6 ../00da7cab-3509-405d-a8d3-fe142136274a/model.chd 'CHD'
  EVT6 ../e58ed525-c537-4843-a3c3-fccbfbd238d4/model.evt 'EVT'
  MAW6 ../d9327119-f099-410d-bc5a-0254b75c0a1d/model.maw 'MAW'
  OC6 ../8feff31f-af65-4690-8239-b34c35956117/model.oc 'OC'
  RCH6 ../c34e46e7-d374-4d65-a127-d53133b75049/model.rch 'RCH'
  STO6 ../05d16c41-bfe1-4983-b7f6-69d61227a561/model.sto 'STO'
  RIV6 ../028aa7e6-8fba-4eec-b7ff-24e0a766724f/model.riv 'RIV'
  DRN6 ../1a302e6c-d4cc-4ecf-9bed-f7bd73394414/model.drn 'DRN'
  WEL6 ../503fa5be-cd53-4f15-8923-3e0c95474967/model.wel 'WEL'
END PACKAGES
