BEGIN OPTIONS
  PRINT_INPUT
  PRINT_FLOWS
  SAVE_FLOWS
  BOUNDNAMES
  AUXILIARY CELLGRP
END OPTIONS

BEGIN DIMENSIONS
  MAXBOUND 344
END DIMENSIONS

BEGIN PERIOD 1
  OPEN/CLOSE ../2d2cb556-e823-47d8-8dc7-9857e6d656cc/model.riv_1.txt
END PERIOD
