BEGIN OPTIONS
  SAVE_FLOWS
  PERCHED
  REWET WETFCT 0.1 IWETIT 1 IHDWET 0
  K33OVERK
END OPTIONS

BEGIN GRIDDATA
  ICELLTYPE
    CONSTANT -1
  K LAYERED
    OPEN/CLOSE ../33cc76fc-1617-45b8-b3b7-569916e8fda8/model.npf_K_1.txt FACTOR 1.0
    OPEN/CLOSE ../33cc76fc-1617-45b8-b3b7-569916e8fda8/model.npf_K_2.txt FACTOR 1.0
  WETDRY
    CONSTANT 0.5
  K33
    OPEN/CLOSE ../33cc76fc-1617-45b8-b3b7-569916e8fda8/model.npf_K33_1.txt FACTOR 1.0
END GRIDDATA
