BEGIN OPTIONS
  BUDGET FILEOUT ../501d91cc-ce4b-4d43-9f42-9a3441866e06/flow.cbc
  HEAD FILEOUT ../501d91cc-ce4b-4d43-9f42-9a3441866e06/flow.hds
END OPTIONS

BEGIN PERIOD 1
  PRINT BUDGET ALL
  PRINT HEAD ALL
  SAVE BUDGET ALL
  SAVE HEAD ALL
END PERIOD
