{"SIM_UUID":"2fbb5cf2-8193-44dd-b08c-925e7cfbac34","SOLUTION_FILE_FULL":"D:\\Users\\User\\Documents\\GMS\\PhD\\Current\\BaseModel_models\\MODFLOW 6\\sim1t\\flow_output\\flow.cbc","SOLUTION_FILE_RELATIVE":"../../../BaseModel_models/MODFLOW 6/sim1t/flow_output/flow.cbc"}