BEGIN OPTIONS
  COMPLEXITY COMPLEX
END OPTIONS

BEGIN NONLINEAR
  OUTER_DVCLOSE 0.1
  OUTER_MAXIMUM 100
END NONLINEAR

BEGIN LINEAR
  INNER_MAXIMUM 500
  INNER_DVCLOSE 0.1
END LINEAR
