BEGIN OPTIONS
  READASARRAYS
  PRINT_INPUT
  PRINT_FLOWS
  SAVE_FLOWS
END OPTIONS

BEGIN PERIOD 1
  RECHARGE
    OPEN/CLOSE ../c34e46e7-d374-4d65-a127-d53133b75049/model.rch_001_RECHARGE.txt FACTOR 1.0
END PERIOD

BEGIN PERIOD 2
  RECHARGE
    OPEN/CLOSE ../c34e46e7-d374-4d65-a127-d53133b75049/model.rch_002_RECHARGE.txt FACTOR 1.0
END PERIOD

BEGIN PERIOD 3
  RECHARGE
    OPEN/CLOSE ../c34e46e7-d374-4d65-a127-d53133b75049/model.rch_003_RECHARGE.txt FACTOR 1.0
END PERIOD

BEGIN PERIOD 4
  RECHARGE
    OPEN/CLOSE ../c34e46e7-d374-4d65-a127-d53133b75049/model.rch_004_RECHARGE.txt FACTOR 1.0
END PERIOD

BEGIN PERIOD 5
  RECHARGE
    OPEN/CLOSE ../c34e46e7-d374-4d65-a127-d53133b75049/model.rch_005_RECHARGE.txt FACTOR 1.0
END PERIOD

BEGIN PERIOD 6
  RECHARGE
    OPEN/CLOSE ../c34e46e7-d374-4d65-a127-d53133b75049/model.rch_006_RECHARGE.txt FACTOR 1.0
END PERIOD

BEGIN PERIOD 7
  RECHARGE
    OPEN/CLOSE ../c34e46e7-d374-4d65-a127-d53133b75049/model.rch_007_RECHARGE.txt FACTOR 1.0
END PERIOD

BEGIN PERIOD 8
  RECHARGE
    CONSTANT 0.0
END PERIOD

BEGIN PERIOD 9
  RECHARGE
    CONSTANT 0.0
END PERIOD

BEGIN PERIOD 10
  RECHARGE
    CONSTANT 0.0
END PERIOD

BEGIN PERIOD 11
  RECHARGE
    CONSTANT 0.0
END PERIOD

BEGIN PERIOD 12
  RECHARGE
    OPEN/CLOSE ../c34e46e7-d374-4d65-a127-d53133b75049/model.rch_012_RECHARGE.txt FACTOR 1.0
END PERIOD

BEGIN PERIOD 13
  RECHARGE
    OPEN/CLOSE ../c34e46e7-d374-4d65-a127-d53133b75049/model.rch_013_RECHARGE.txt FACTOR 1.0
END PERIOD

BEGIN PERIOD 14
  RECHARGE
    OPEN/CLOSE ../c34e46e7-d374-4d65-a127-d53133b75049/model.rch_014_RECHARGE.txt FACTOR 1.0
END PERIOD

BEGIN PERIOD 15
  RECHARGE
    OPEN/CLOSE ../c34e46e7-d374-4d65-a127-d53133b75049/model.rch_015_RECHARGE.txt FACTOR 1.0
END PERIOD

BEGIN PERIOD 16
  RECHARGE
    OPEN/CLOSE ../c34e46e7-d374-4d65-a127-d53133b75049/model.rch_016_RECHARGE.txt FACTOR 1.0
END PERIOD

BEGIN PERIOD 17
  RECHARGE
    OPEN/CLOSE ../c34e46e7-d374-4d65-a127-d53133b75049/model.rch_017_RECHARGE.txt FACTOR 1.0
END PERIOD

BEGIN PERIOD 18
  RECHARGE
    OPEN/CLOSE ../c34e46e7-d374-4d65-a127-d53133b75049/model.rch_018_RECHARGE.txt FACTOR 1.0
END PERIOD

BEGIN PERIOD 19
  RECHARGE
    CONSTANT 0.0
END PERIOD

BEGIN PERIOD 20
  RECHARGE
    CONSTANT 0.0
END PERIOD

BEGIN PERIOD 21
  RECHARGE
    OPEN/CLOSE ../c34e46e7-d374-4d65-a127-d53133b75049/model.rch_021_RECHARGE.txt FACTOR 1.0
END PERIOD

BEGIN PERIOD 22
  RECHARGE
    OPEN/CLOSE ../c34e46e7-d374-4d65-a127-d53133b75049/model.rch_022_RECHARGE.txt FACTOR 1.0
END PERIOD

BEGIN PERIOD 23
  RECHARGE
    OPEN/CLOSE ../c34e46e7-d374-4d65-a127-d53133b75049/model.rch_023_RECHARGE.txt FACTOR 1.0
END PERIOD

BEGIN PERIOD 24
  RECHARGE
    OPEN/CLOSE ../c34e46e7-d374-4d65-a127-d53133b75049/model.rch_024_RECHARGE.txt FACTOR 1.0
END PERIOD

BEGIN PERIOD 25
  RECHARGE
    OPEN/CLOSE ../c34e46e7-d374-4d65-a127-d53133b75049/model.rch_025_RECHARGE.txt FACTOR 1.0
END PERIOD

BEGIN PERIOD 26
  RECHARGE
    OPEN/CLOSE ../c34e46e7-d374-4d65-a127-d53133b75049/model.rch_026_RECHARGE.txt FACTOR 1.0
END PERIOD

BEGIN PERIOD 27
  RECHARGE
    OPEN/CLOSE ../c34e46e7-d374-4d65-a127-d53133b75049/model.rch_027_RECHARGE.txt FACTOR 1.0
END PERIOD

BEGIN PERIOD 28
  RECHARGE
    OPEN/CLOSE ../c34e46e7-d374-4d65-a127-d53133b75049/model.rch_028_RECHARGE.txt FACTOR 1.0
END PERIOD

BEGIN PERIOD 29
  RECHARGE
    OPEN/CLOSE ../c34e46e7-d374-4d65-a127-d53133b75049/model.rch_029_RECHARGE.txt FACTOR 1.0
END PERIOD

BEGIN PERIOD 30
  RECHARGE
    OPEN/CLOSE ../c34e46e7-d374-4d65-a127-d53133b75049/model.rch_030_RECHARGE.txt FACTOR 1.0
END PERIOD

BEGIN PERIOD 31
  RECHARGE
    OPEN/CLOSE ../c34e46e7-d374-4d65-a127-d53133b75049/model.rch_031_RECHARGE.txt FACTOR 1.0
END PERIOD

BEGIN PERIOD 32
  RECHARGE
    OPEN/CLOSE ../c34e46e7-d374-4d65-a127-d53133b75049/model.rch_032_RECHARGE.txt FACTOR 1.0
END PERIOD

BEGIN PERIOD 33
  RECHARGE
    OPEN/CLOSE ../c34e46e7-d374-4d65-a127-d53133b75049/model.rch_033_RECHARGE.txt FACTOR 1.0
END PERIOD

BEGIN PERIOD 34
  RECHARGE
    OPEN/CLOSE ../c34e46e7-d374-4d65-a127-d53133b75049/model.rch_034_RECHARGE.txt FACTOR 1.0
END PERIOD

BEGIN PERIOD 35
  RECHARGE
    OPEN/CLOSE ../c34e46e7-d374-4d65-a127-d53133b75049/model.rch_035_RECHARGE.txt FACTOR 1.0
END PERIOD

BEGIN PERIOD 36
  RECHARGE
    OPEN/CLOSE ../c34e46e7-d374-4d65-a127-d53133b75049/model.rch_036_RECHARGE.txt FACTOR 1.0
END PERIOD

BEGIN PERIOD 37
  RECHARGE
    OPEN/CLOSE ../c34e46e7-d374-4d65-a127-d53133b75049/model.rch_037_RECHARGE.txt FACTOR 1.0
END PERIOD

BEGIN PERIOD 38
  RECHARGE
    OPEN/CLOSE ../c34e46e7-d374-4d65-a127-d53133b75049/model.rch_038_RECHARGE.txt FACTOR 1.0
END PERIOD

BEGIN PERIOD 39
  RECHARGE
    OPEN/CLOSE ../c34e46e7-d374-4d65-a127-d53133b75049/model.rch_039_RECHARGE.txt FACTOR 1.0
END PERIOD

BEGIN PERIOD 40
  RECHARGE
    OPEN/CLOSE ../c34e46e7-d374-4d65-a127-d53133b75049/model.rch_040_RECHARGE.txt FACTOR 1.0
END PERIOD

BEGIN PERIOD 41
  RECHARGE
    OPEN/CLOSE ../c34e46e7-d374-4d65-a127-d53133b75049/model.rch_041_RECHARGE.txt FACTOR 1.0
END PERIOD

BEGIN PERIOD 42
  RECHARGE
    OPEN/CLOSE ../c34e46e7-d374-4d65-a127-d53133b75049/model.rch_042_RECHARGE.txt FACTOR 1.0
END PERIOD

BEGIN PERIOD 43
  RECHARGE
    CONSTANT 0.0
END PERIOD

BEGIN PERIOD 44
  RECHARGE
    CONSTANT 0.0
END PERIOD

BEGIN PERIOD 45
  RECHARGE
    CONSTANT 0.0
END PERIOD

BEGIN PERIOD 46
  RECHARGE
    OPEN/CLOSE ../c34e46e7-d374-4d65-a127-d53133b75049/model.rch_046_RECHARGE.txt FACTOR 1.0
END PERIOD

BEGIN PERIOD 47
  RECHARGE
    OPEN/CLOSE ../c34e46e7-d374-4d65-a127-d53133b75049/model.rch_047_RECHARGE.txt FACTOR 1.0
END PERIOD

BEGIN PERIOD 48
  RECHARGE
    OPEN/CLOSE ../c34e46e7-d374-4d65-a127-d53133b75049/model.rch_048_RECHARGE.txt FACTOR 1.0
END PERIOD

BEGIN PERIOD 49
  RECHARGE
    OPEN/CLOSE ../c34e46e7-d374-4d65-a127-d53133b75049/model.rch_049_RECHARGE.txt FACTOR 1.0
END PERIOD

BEGIN PERIOD 50
  RECHARGE
    OPEN/CLOSE ../c34e46e7-d374-4d65-a127-d53133b75049/model.rch_050_RECHARGE.txt FACTOR 1.0
END PERIOD

BEGIN PERIOD 51
  RECHARGE
    OPEN/CLOSE ../c34e46e7-d374-4d65-a127-d53133b75049/model.rch_051_RECHARGE.txt FACTOR 1.0
END PERIOD

BEGIN PERIOD 52
  RECHARGE
    CONSTANT 0.0
END PERIOD

BEGIN PERIOD 53
  RECHARGE
    CONSTANT 0.0
END PERIOD

BEGIN PERIOD 54
  RECHARGE
    CONSTANT 0.0
END PERIOD

BEGIN PERIOD 55
  RECHARGE
    CONSTANT 0.0
END PERIOD

BEGIN PERIOD 56
  RECHARGE
    CONSTANT 0.0
END PERIOD

BEGIN PERIOD 57
  RECHARGE
    CONSTANT 0.0
END PERIOD

BEGIN PERIOD 58
  RECHARGE
    CONSTANT 0.0
END PERIOD

BEGIN PERIOD 59
  RECHARGE
    CONSTANT 0.0
END PERIOD

BEGIN PERIOD 60
  RECHARGE
    CONSTANT 0.0
END PERIOD

BEGIN PERIOD 61
  RECHARGE
    CONSTANT 0.0
END PERIOD

BEGIN PERIOD 62
  RECHARGE
    CONSTANT 0.0
END PERIOD

BEGIN PERIOD 63
  RECHARGE
    OPEN/CLOSE ../c34e46e7-d374-4d65-a127-d53133b75049/model.rch_063_RECHARGE.txt FACTOR 1.0
END PERIOD

BEGIN PERIOD 64
  RECHARGE
    OPEN/CLOSE ../c34e46e7-d374-4d65-a127-d53133b75049/model.rch_064_RECHARGE.txt FACTOR 1.0
END PERIOD

BEGIN PERIOD 65
  RECHARGE
    OPEN/CLOSE ../c34e46e7-d374-4d65-a127-d53133b75049/model.rch_065_RECHARGE.txt FACTOR 1.0
END PERIOD

BEGIN PERIOD 66
  RECHARGE
    CONSTANT 0.0
END PERIOD

BEGIN PERIOD 67
  RECHARGE
    CONSTANT 0.0
END PERIOD

BEGIN PERIOD 68
  RECHARGE
    CONSTANT 0.0
END PERIOD

BEGIN PERIOD 69
  RECHARGE
    CONSTANT 0.0
END PERIOD

BEGIN PERIOD 70
  RECHARGE
    OPEN/CLOSE ../c34e46e7-d374-4d65-a127-d53133b75049/model.rch_070_RECHARGE.txt FACTOR 1.0
END PERIOD

BEGIN PERIOD 71
  RECHARGE
    OPEN/CLOSE ../c34e46e7-d374-4d65-a127-d53133b75049/model.rch_071_RECHARGE.txt FACTOR 1.0
END PERIOD

BEGIN PERIOD 72
  RECHARGE
    OPEN/CLOSE ../c34e46e7-d374-4d65-a127-d53133b75049/model.rch_072_RECHARGE.txt FACTOR 1.0
END PERIOD

BEGIN PERIOD 73
  RECHARGE
    OPEN/CLOSE ../c34e46e7-d374-4d65-a127-d53133b75049/model.rch_073_RECHARGE.txt FACTOR 1.0
END PERIOD

BEGIN PERIOD 74
  RECHARGE
    OPEN/CLOSE ../c34e46e7-d374-4d65-a127-d53133b75049/model.rch_074_RECHARGE.txt FACTOR 1.0
END PERIOD

BEGIN PERIOD 75
  RECHARGE
    OPEN/CLOSE ../c34e46e7-d374-4d65-a127-d53133b75049/model.rch_075_RECHARGE.txt FACTOR 1.0
END PERIOD

BEGIN PERIOD 76
  RECHARGE
    OPEN/CLOSE ../c34e46e7-d374-4d65-a127-d53133b75049/model.rch_076_RECHARGE.txt FACTOR 1.0
END PERIOD

BEGIN PERIOD 77
  RECHARGE
    OPEN/CLOSE ../c34e46e7-d374-4d65-a127-d53133b75049/model.rch_077_RECHARGE.txt FACTOR 1.0
END PERIOD

BEGIN PERIOD 78
  RECHARGE
    OPEN/CLOSE ../c34e46e7-d374-4d65-a127-d53133b75049/model.rch_078_RECHARGE.txt FACTOR 1.0
END PERIOD

BEGIN PERIOD 79
  RECHARGE
    OPEN/CLOSE ../c34e46e7-d374-4d65-a127-d53133b75049/model.rch_079_RECHARGE.txt FACTOR 1.0
END PERIOD

BEGIN PERIOD 80
  RECHARGE
    CONSTANT 0.0
END PERIOD

BEGIN PERIOD 81
  RECHARGE
    CONSTANT 0.0
END PERIOD

BEGIN PERIOD 82
  RECHARGE
    OPEN/CLOSE ../c34e46e7-d374-4d65-a127-d53133b75049/model.rch_082_RECHARGE.txt FACTOR 1.0
END PERIOD

BEGIN PERIOD 83
  RECHARGE
    OPEN/CLOSE ../c34e46e7-d374-4d65-a127-d53133b75049/model.rch_083_RECHARGE.txt FACTOR 1.0
END PERIOD

BEGIN PERIOD 84
  RECHARGE
    CONSTANT 0.0
END PERIOD

BEGIN PERIOD 85
  RECHARGE
    CONSTANT 0.0
END PERIOD

BEGIN PERIOD 86
  RECHARGE
    OPEN/CLOSE ../c34e46e7-d374-4d65-a127-d53133b75049/model.rch_086_RECHARGE.txt FACTOR 1.0
END PERIOD

BEGIN PERIOD 87
  RECHARGE
    OPEN/CLOSE ../c34e46e7-d374-4d65-a127-d53133b75049/model.rch_087_RECHARGE.txt FACTOR 1.0
END PERIOD

BEGIN PERIOD 88
  RECHARGE
    CONSTANT 0.0
END PERIOD

BEGIN PERIOD 89
  RECHARGE
    CONSTANT 0.0
END PERIOD

BEGIN PERIOD 90
  RECHARGE
    CONSTANT 0.0
END PERIOD

BEGIN PERIOD 91
  RECHARGE
    OPEN/CLOSE ../c34e46e7-d374-4d65-a127-d53133b75049/model.rch_091_RECHARGE.txt FACTOR 1.0
END PERIOD

BEGIN PERIOD 92
  RECHARGE
    OPEN/CLOSE ../c34e46e7-d374-4d65-a127-d53133b75049/model.rch_092_RECHARGE.txt FACTOR 1.0
END PERIOD

BEGIN PERIOD 93
  RECHARGE
    CONSTANT 0.0
END PERIOD

BEGIN PERIOD 94
  RECHARGE
    CONSTANT 0.0
END PERIOD

BEGIN PERIOD 95
  RECHARGE
    OPEN/CLOSE ../c34e46e7-d374-4d65-a127-d53133b75049/model.rch_095_RECHARGE.txt FACTOR 1.0
END PERIOD

BEGIN PERIOD 96
  RECHARGE
    OPEN/CLOSE ../c34e46e7-d374-4d65-a127-d53133b75049/model.rch_096_RECHARGE.txt FACTOR 1.0
END PERIOD

BEGIN PERIOD 97
  RECHARGE
    OPEN/CLOSE ../c34e46e7-d374-4d65-a127-d53133b75049/model.rch_097_RECHARGE.txt FACTOR 1.0
END PERIOD

BEGIN PERIOD 98
  RECHARGE
    OPEN/CLOSE ../c34e46e7-d374-4d65-a127-d53133b75049/model.rch_098_RECHARGE.txt FACTOR 1.0
END PERIOD

BEGIN PERIOD 99
  RECHARGE
    CONSTANT 0.0
END PERIOD

BEGIN PERIOD 100
  RECHARGE
    OPEN/CLOSE ../c34e46e7-d374-4d65-a127-d53133b75049/model.rch_100_RECHARGE.txt FACTOR 1.0
END PERIOD

BEGIN PERIOD 101
  RECHARGE
    OPEN/CLOSE ../c34e46e7-d374-4d65-a127-d53133b75049/model.rch_101_RECHARGE.txt FACTOR 1.0
END PERIOD

BEGIN PERIOD 102
  RECHARGE
    OPEN/CLOSE ../c34e46e7-d374-4d65-a127-d53133b75049/model.rch_102_RECHARGE.txt FACTOR 1.0
END PERIOD

BEGIN PERIOD 103
  RECHARGE
    OPEN/CLOSE ../c34e46e7-d374-4d65-a127-d53133b75049/model.rch_103_RECHARGE.txt FACTOR 1.0
END PERIOD

BEGIN PERIOD 104
  RECHARGE
    CONSTANT 0.0
END PERIOD

BEGIN PERIOD 105
  RECHARGE
    CONSTANT 0.0
END PERIOD

BEGIN PERIOD 106
  RECHARGE
    CONSTANT 0.0
END PERIOD

BEGIN PERIOD 107
  RECHARGE
    OPEN/CLOSE ../c34e46e7-d374-4d65-a127-d53133b75049/model.rch_107_RECHARGE.txt FACTOR 1.0
END PERIOD

BEGIN PERIOD 108
  RECHARGE
    OPEN/CLOSE ../c34e46e7-d374-4d65-a127-d53133b75049/model.rch_108_RECHARGE.txt FACTOR 1.0
END PERIOD

BEGIN PERIOD 109
  RECHARGE
    OPEN/CLOSE ../c34e46e7-d374-4d65-a127-d53133b75049/model.rch_109_RECHARGE.txt FACTOR 1.0
END PERIOD

BEGIN PERIOD 110
  RECHARGE
    OPEN/CLOSE ../c34e46e7-d374-4d65-a127-d53133b75049/model.rch_110_RECHARGE.txt FACTOR 1.0
END PERIOD

BEGIN PERIOD 111
  RECHARGE
    CONSTANT 0.0
END PERIOD

BEGIN PERIOD 112
  RECHARGE
    CONSTANT 0.0
END PERIOD

BEGIN PERIOD 113
  RECHARGE
    CONSTANT 0.0
END PERIOD

BEGIN PERIOD 114
  RECHARGE
    CONSTANT 0.0
END PERIOD

BEGIN PERIOD 115
  RECHARGE
    CONSTANT 0.0
END PERIOD

BEGIN PERIOD 116
  RECHARGE
    CONSTANT 0.0
END PERIOD

BEGIN PERIOD 117
  RECHARGE
    CONSTANT 0.0
END PERIOD

BEGIN PERIOD 118
  RECHARGE
    OPEN/CLOSE ../c34e46e7-d374-4d65-a127-d53133b75049/model.rch_118_RECHARGE.txt FACTOR 1.0
END PERIOD

BEGIN PERIOD 119
  RECHARGE
    OPEN/CLOSE ../c34e46e7-d374-4d65-a127-d53133b75049/model.rch_119_RECHARGE.txt FACTOR 1.0
END PERIOD

BEGIN PERIOD 120
  RECHARGE
    OPEN/CLOSE ../c34e46e7-d374-4d65-a127-d53133b75049/model.rch_120_RECHARGE.txt FACTOR 1.0
END PERIOD

BEGIN PERIOD 121
  RECHARGE
    OPEN/CLOSE ../c34e46e7-d374-4d65-a127-d53133b75049/model.rch_121_RECHARGE.txt FACTOR 1.0
END PERIOD

BEGIN PERIOD 122
  RECHARGE
    OPEN/CLOSE ../c34e46e7-d374-4d65-a127-d53133b75049/model.rch_122_RECHARGE.txt FACTOR 1.0
END PERIOD

BEGIN PERIOD 123
  RECHARGE
    OPEN/CLOSE ../c34e46e7-d374-4d65-a127-d53133b75049/model.rch_123_RECHARGE.txt FACTOR 1.0
END PERIOD

BEGIN PERIOD 124
  RECHARGE
    OPEN/CLOSE ../c34e46e7-d374-4d65-a127-d53133b75049/model.rch_124_RECHARGE.txt FACTOR 1.0
END PERIOD

BEGIN PERIOD 125
  RECHARGE
    OPEN/CLOSE ../c34e46e7-d374-4d65-a127-d53133b75049/model.rch_125_RECHARGE.txt FACTOR 1.0
END PERIOD

BEGIN PERIOD 126
  RECHARGE
    OPEN/CLOSE ../c34e46e7-d374-4d65-a127-d53133b75049/model.rch_126_RECHARGE.txt FACTOR 1.0
END PERIOD

BEGIN PERIOD 127
  RECHARGE
    OPEN/CLOSE ../c34e46e7-d374-4d65-a127-d53133b75049/model.rch_127_RECHARGE.txt FACTOR 1.0
END PERIOD

BEGIN PERIOD 128
  RECHARGE
    OPEN/CLOSE ../c34e46e7-d374-4d65-a127-d53133b75049/model.rch_128_RECHARGE.txt FACTOR 1.0
END PERIOD

BEGIN PERIOD 129
  RECHARGE
    CONSTANT 0.0
END PERIOD

BEGIN PERIOD 130
  RECHARGE
    CONSTANT 0.0
END PERIOD

BEGIN PERIOD 131
  RECHARGE
    OPEN/CLOSE ../c34e46e7-d374-4d65-a127-d53133b75049/model.rch_131_RECHARGE.txt FACTOR 1.0
END PERIOD

BEGIN PERIOD 132
  RECHARGE
    OPEN/CLOSE ../c34e46e7-d374-4d65-a127-d53133b75049/model.rch_132_RECHARGE.txt FACTOR 1.0
END PERIOD

BEGIN PERIOD 133
  RECHARGE
    OPEN/CLOSE ../c34e46e7-d374-4d65-a127-d53133b75049/model.rch_133_RECHARGE.txt FACTOR 1.0
END PERIOD

BEGIN PERIOD 134
  RECHARGE
    OPEN/CLOSE ../c34e46e7-d374-4d65-a127-d53133b75049/model.rch_134_RECHARGE.txt FACTOR 1.0
END PERIOD

BEGIN PERIOD 135
  RECHARGE
    OPEN/CLOSE ../c34e46e7-d374-4d65-a127-d53133b75049/model.rch_135_RECHARGE.txt FACTOR 1.0
END PERIOD

BEGIN PERIOD 136
  RECHARGE
    OPEN/CLOSE ../c34e46e7-d374-4d65-a127-d53133b75049/model.rch_136_RECHARGE.txt FACTOR 1.0
END PERIOD

BEGIN PERIOD 137
  RECHARGE
    OPEN/CLOSE ../c34e46e7-d374-4d65-a127-d53133b75049/model.rch_137_RECHARGE.txt FACTOR 1.0
END PERIOD

BEGIN PERIOD 138
  RECHARGE
    OPEN/CLOSE ../c34e46e7-d374-4d65-a127-d53133b75049/model.rch_138_RECHARGE.txt FACTOR 1.0
END PERIOD

BEGIN PERIOD 139
  RECHARGE
    OPEN/CLOSE ../c34e46e7-d374-4d65-a127-d53133b75049/model.rch_139_RECHARGE.txt FACTOR 1.0
END PERIOD

BEGIN PERIOD 140
  RECHARGE
    OPEN/CLOSE ../c34e46e7-d374-4d65-a127-d53133b75049/model.rch_140_RECHARGE.txt FACTOR 1.0
END PERIOD

BEGIN PERIOD 141
  RECHARGE
    OPEN/CLOSE ../c34e46e7-d374-4d65-a127-d53133b75049/model.rch_141_RECHARGE.txt FACTOR 1.0
END PERIOD

BEGIN PERIOD 142
  RECHARGE
    OPEN/CLOSE ../c34e46e7-d374-4d65-a127-d53133b75049/model.rch_142_RECHARGE.txt FACTOR 1.0
END PERIOD

BEGIN PERIOD 143
  RECHARGE
    OPEN/CLOSE ../c34e46e7-d374-4d65-a127-d53133b75049/model.rch_143_RECHARGE.txt FACTOR 1.0
END PERIOD

BEGIN PERIOD 144
  RECHARGE
    OPEN/CLOSE ../c34e46e7-d374-4d65-a127-d53133b75049/model.rch_144_RECHARGE.txt FACTOR 1.0
END PERIOD

BEGIN PERIOD 145
  RECHARGE
    OPEN/CLOSE ../c34e46e7-d374-4d65-a127-d53133b75049/model.rch_145_RECHARGE.txt FACTOR 1.0
END PERIOD

BEGIN PERIOD 146
  RECHARGE
    OPEN/CLOSE ../c34e46e7-d374-4d65-a127-d53133b75049/model.rch_146_RECHARGE.txt FACTOR 1.0
END PERIOD

BEGIN PERIOD 147
  RECHARGE
    OPEN/CLOSE ../c34e46e7-d374-4d65-a127-d53133b75049/model.rch_147_RECHARGE.txt FACTOR 1.0
END PERIOD

BEGIN PERIOD 148
  RECHARGE
    OPEN/CLOSE ../c34e46e7-d374-4d65-a127-d53133b75049/model.rch_148_RECHARGE.txt FACTOR 1.0
END PERIOD

BEGIN PERIOD 149
  RECHARGE
    CONSTANT 0.0
END PERIOD

BEGIN PERIOD 150
  RECHARGE
    CONSTANT 0.0
END PERIOD

BEGIN PERIOD 151
  RECHARGE
    CONSTANT 0.0
END PERIOD

BEGIN PERIOD 152
  RECHARGE
    CONSTANT 0.0
END PERIOD

BEGIN PERIOD 153
  RECHARGE
    CONSTANT 0.0
END PERIOD

BEGIN PERIOD 154
  RECHARGE
    OPEN/CLOSE ../c34e46e7-d374-4d65-a127-d53133b75049/model.rch_154_RECHARGE.txt FACTOR 1.0
END PERIOD

BEGIN PERIOD 155
  RECHARGE
    OPEN/CLOSE ../c34e46e7-d374-4d65-a127-d53133b75049/model.rch_155_RECHARGE.txt FACTOR 1.0
END PERIOD

BEGIN PERIOD 156
  RECHARGE
    OPEN/CLOSE ../c34e46e7-d374-4d65-a127-d53133b75049/model.rch_156_RECHARGE.txt FACTOR 1.0
END PERIOD

BEGIN PERIOD 157
  RECHARGE
    OPEN/CLOSE ../c34e46e7-d374-4d65-a127-d53133b75049/model.rch_157_RECHARGE.txt FACTOR 1.0
END PERIOD

BEGIN PERIOD 158
  RECHARGE
    OPEN/CLOSE ../c34e46e7-d374-4d65-a127-d53133b75049/model.rch_158_RECHARGE.txt FACTOR 1.0
END PERIOD

BEGIN PERIOD 159
  RECHARGE
    OPEN/CLOSE ../c34e46e7-d374-4d65-a127-d53133b75049/model.rch_159_RECHARGE.txt FACTOR 1.0
END PERIOD

BEGIN PERIOD 160
  RECHARGE
    OPEN/CLOSE ../c34e46e7-d374-4d65-a127-d53133b75049/model.rch_160_RECHARGE.txt FACTOR 1.0
END PERIOD

BEGIN PERIOD 161
  RECHARGE
    OPEN/CLOSE ../c34e46e7-d374-4d65-a127-d53133b75049/model.rch_161_RECHARGE.txt FACTOR 1.0
END PERIOD

BEGIN PERIOD 162
  RECHARGE
    OPEN/CLOSE ../c34e46e7-d374-4d65-a127-d53133b75049/model.rch_162_RECHARGE.txt FACTOR 1.0
END PERIOD

BEGIN PERIOD 163
  RECHARGE
    OPEN/CLOSE ../c34e46e7-d374-4d65-a127-d53133b75049/model.rch_163_RECHARGE.txt FACTOR 1.0
END PERIOD

BEGIN PERIOD 164
  RECHARGE
    CONSTANT 0.0
END PERIOD

BEGIN PERIOD 165
  RECHARGE
    CONSTANT 0.0
END PERIOD

BEGIN PERIOD 166
  RECHARGE
    CONSTANT 0.0
END PERIOD

BEGIN PERIOD 167
  RECHARGE
    CONSTANT 0.0
END PERIOD

BEGIN PERIOD 168
  RECHARGE
    CONSTANT 0.0
END PERIOD

BEGIN PERIOD 169
  RECHARGE
    CONSTANT 0.0
END PERIOD

BEGIN PERIOD 170
  RECHARGE
    OPEN/CLOSE ../c34e46e7-d374-4d65-a127-d53133b75049/model.rch_170_RECHARGE.txt FACTOR 1.0
END PERIOD

BEGIN PERIOD 171
  RECHARGE
    OPEN/CLOSE ../c34e46e7-d374-4d65-a127-d53133b75049/model.rch_171_RECHARGE.txt FACTOR 1.0
END PERIOD

BEGIN PERIOD 172
  RECHARGE
    OPEN/CLOSE ../c34e46e7-d374-4d65-a127-d53133b75049/model.rch_172_RECHARGE.txt FACTOR 1.0
END PERIOD

BEGIN PERIOD 173
  RECHARGE
    OPEN/CLOSE ../c34e46e7-d374-4d65-a127-d53133b75049/model.rch_173_RECHARGE.txt FACTOR 1.0
END PERIOD

BEGIN PERIOD 174
  RECHARGE
    OPEN/CLOSE ../c34e46e7-d374-4d65-a127-d53133b75049/model.rch_174_RECHARGE.txt FACTOR 1.0
END PERIOD

BEGIN PERIOD 175
  RECHARGE
    OPEN/CLOSE ../c34e46e7-d374-4d65-a127-d53133b75049/model.rch_175_RECHARGE.txt FACTOR 1.0
END PERIOD

BEGIN PERIOD 176
  RECHARGE
    OPEN/CLOSE ../c34e46e7-d374-4d65-a127-d53133b75049/model.rch_176_RECHARGE.txt FACTOR 1.0
END PERIOD

BEGIN PERIOD 177
  RECHARGE
    OPEN/CLOSE ../c34e46e7-d374-4d65-a127-d53133b75049/model.rch_177_RECHARGE.txt FACTOR 1.0
END PERIOD

BEGIN PERIOD 178
  RECHARGE
    OPEN/CLOSE ../c34e46e7-d374-4d65-a127-d53133b75049/model.rch_178_RECHARGE.txt FACTOR 1.0
END PERIOD

BEGIN PERIOD 179
  RECHARGE
    OPEN/CLOSE ../c34e46e7-d374-4d65-a127-d53133b75049/model.rch_179_RECHARGE.txt FACTOR 1.0
END PERIOD

BEGIN PERIOD 180
  RECHARGE
    OPEN/CLOSE ../c34e46e7-d374-4d65-a127-d53133b75049/model.rch_180_RECHARGE.txt FACTOR 1.0
END PERIOD

BEGIN PERIOD 181
  RECHARGE
    OPEN/CLOSE ../c34e46e7-d374-4d65-a127-d53133b75049/model.rch_181_RECHARGE.txt FACTOR 1.0
END PERIOD

BEGIN PERIOD 182
  RECHARGE
    OPEN/CLOSE ../c34e46e7-d374-4d65-a127-d53133b75049/model.rch_182_RECHARGE.txt FACTOR 1.0
END PERIOD

BEGIN PERIOD 183
  RECHARGE
    OPEN/CLOSE ../c34e46e7-d374-4d65-a127-d53133b75049/model.rch_183_RECHARGE.txt FACTOR 1.0
END PERIOD

BEGIN PERIOD 184
  RECHARGE
    OPEN/CLOSE ../c34e46e7-d374-4d65-a127-d53133b75049/model.rch_184_RECHARGE.txt FACTOR 1.0
END PERIOD

BEGIN PERIOD 185
  RECHARGE
    OPEN/CLOSE ../c34e46e7-d374-4d65-a127-d53133b75049/model.rch_185_RECHARGE.txt FACTOR 1.0
END PERIOD

BEGIN PERIOD 186
  RECHARGE
    OPEN/CLOSE ../c34e46e7-d374-4d65-a127-d53133b75049/model.rch_186_RECHARGE.txt FACTOR 1.0
END PERIOD

BEGIN PERIOD 187
  RECHARGE
    OPEN/CLOSE ../c34e46e7-d374-4d65-a127-d53133b75049/model.rch_187_RECHARGE.txt FACTOR 1.0
END PERIOD

BEGIN PERIOD 188
  RECHARGE
    OPEN/CLOSE ../c34e46e7-d374-4d65-a127-d53133b75049/model.rch_188_RECHARGE.txt FACTOR 1.0
END PERIOD

BEGIN PERIOD 189
  RECHARGE
    OPEN/CLOSE ../c34e46e7-d374-4d65-a127-d53133b75049/model.rch_189_RECHARGE.txt FACTOR 1.0
END PERIOD

BEGIN PERIOD 190
  RECHARGE
    OPEN/CLOSE ../c34e46e7-d374-4d65-a127-d53133b75049/model.rch_190_RECHARGE.txt FACTOR 1.0
END PERIOD

BEGIN PERIOD 191
  RECHARGE
    OPEN/CLOSE ../c34e46e7-d374-4d65-a127-d53133b75049/model.rch_191_RECHARGE.txt FACTOR 1.0
END PERIOD

BEGIN PERIOD 192
  RECHARGE
    OPEN/CLOSE ../c34e46e7-d374-4d65-a127-d53133b75049/model.rch_192_RECHARGE.txt FACTOR 1.0
END PERIOD

BEGIN PERIOD 193
  RECHARGE
    OPEN/CLOSE ../c34e46e7-d374-4d65-a127-d53133b75049/model.rch_193_RECHARGE.txt FACTOR 1.0
END PERIOD

BEGIN PERIOD 194
  RECHARGE
    OPEN/CLOSE ../c34e46e7-d374-4d65-a127-d53133b75049/model.rch_194_RECHARGE.txt FACTOR 1.0
END PERIOD

BEGIN PERIOD 195
  RECHARGE
    OPEN/CLOSE ../c34e46e7-d374-4d65-a127-d53133b75049/model.rch_195_RECHARGE.txt FACTOR 1.0
END PERIOD

BEGIN PERIOD 196
  RECHARGE
    OPEN/CLOSE ../c34e46e7-d374-4d65-a127-d53133b75049/model.rch_196_RECHARGE.txt FACTOR 1.0
END PERIOD

BEGIN PERIOD 197
  RECHARGE
    OPEN/CLOSE ../c34e46e7-d374-4d65-a127-d53133b75049/model.rch_197_RECHARGE.txt FACTOR 1.0
END PERIOD

BEGIN PERIOD 198
  RECHARGE
    OPEN/CLOSE ../c34e46e7-d374-4d65-a127-d53133b75049/model.rch_198_RECHARGE.txt FACTOR 1.0
END PERIOD

BEGIN PERIOD 199
  RECHARGE
    OPEN/CLOSE ../c34e46e7-d374-4d65-a127-d53133b75049/model.rch_199_RECHARGE.txt FACTOR 1.0
END PERIOD

BEGIN PERIOD 200
  RECHARGE
    CONSTANT 0.0
END PERIOD

BEGIN PERIOD 201
  RECHARGE
    CONSTANT 0.0
END PERIOD

BEGIN PERIOD 202
  RECHARGE
    CONSTANT 0.0
END PERIOD

BEGIN PERIOD 203
  RECHARGE
    CONSTANT 0.0
END PERIOD

BEGIN PERIOD 204
  RECHARGE
    CONSTANT 0.0
END PERIOD

BEGIN PERIOD 205
  RECHARGE
    OPEN/CLOSE ../c34e46e7-d374-4d65-a127-d53133b75049/model.rch_205_RECHARGE.txt FACTOR 1.0
END PERIOD

BEGIN PERIOD 206
  RECHARGE
    OPEN/CLOSE ../c34e46e7-d374-4d65-a127-d53133b75049/model.rch_206_RECHARGE.txt FACTOR 1.0
END PERIOD

BEGIN PERIOD 207
  RECHARGE
    OPEN/CLOSE ../c34e46e7-d374-4d65-a127-d53133b75049/model.rch_207_RECHARGE.txt FACTOR 1.0
END PERIOD

BEGIN PERIOD 208
  RECHARGE
    OPEN/CLOSE ../c34e46e7-d374-4d65-a127-d53133b75049/model.rch_208_RECHARGE.txt FACTOR 1.0
END PERIOD

BEGIN PERIOD 209
  RECHARGE
    OPEN/CLOSE ../c34e46e7-d374-4d65-a127-d53133b75049/model.rch_209_RECHARGE.txt FACTOR 1.0
END PERIOD

BEGIN PERIOD 210
  RECHARGE
    OPEN/CLOSE ../c34e46e7-d374-4d65-a127-d53133b75049/model.rch_210_RECHARGE.txt FACTOR 1.0
END PERIOD

BEGIN PERIOD 211
  RECHARGE
    CONSTANT 0.0
END PERIOD

BEGIN PERIOD 212
  RECHARGE
    CONSTANT 0.0
END PERIOD

BEGIN PERIOD 213
  RECHARGE
    OPEN/CLOSE ../c34e46e7-d374-4d65-a127-d53133b75049/model.rch_213_RECHARGE.txt FACTOR 1.0
END PERIOD

BEGIN PERIOD 214
  RECHARGE
    OPEN/CLOSE ../c34e46e7-d374-4d65-a127-d53133b75049/model.rch_214_RECHARGE.txt FACTOR 1.0
END PERIOD

BEGIN PERIOD 215
  RECHARGE
    OPEN/CLOSE ../c34e46e7-d374-4d65-a127-d53133b75049/model.rch_215_RECHARGE.txt FACTOR 1.0
END PERIOD

BEGIN PERIOD 216
  RECHARGE
    OPEN/CLOSE ../c34e46e7-d374-4d65-a127-d53133b75049/model.rch_216_RECHARGE.txt FACTOR 1.0
END PERIOD

BEGIN PERIOD 217
  RECHARGE
    OPEN/CLOSE ../c34e46e7-d374-4d65-a127-d53133b75049/model.rch_217_RECHARGE.txt FACTOR 1.0
END PERIOD

BEGIN PERIOD 218
  RECHARGE
    OPEN/CLOSE ../c34e46e7-d374-4d65-a127-d53133b75049/model.rch_218_RECHARGE.txt FACTOR 1.0
END PERIOD

BEGIN PERIOD 219
  RECHARGE
    OPEN/CLOSE ../c34e46e7-d374-4d65-a127-d53133b75049/model.rch_219_RECHARGE.txt FACTOR 1.0
END PERIOD

BEGIN PERIOD 220
  RECHARGE
    OPEN/CLOSE ../c34e46e7-d374-4d65-a127-d53133b75049/model.rch_220_RECHARGE.txt FACTOR 1.0
END PERIOD

BEGIN PERIOD 221
  RECHARGE
    CONSTANT 0.0
END PERIOD

BEGIN PERIOD 222
  RECHARGE
    CONSTANT 0.0
END PERIOD

BEGIN PERIOD 223
  RECHARGE
    CONSTANT 0.0
END PERIOD

BEGIN PERIOD 224
  RECHARGE
    CONSTANT 0.0
END PERIOD

BEGIN PERIOD 225
  RECHARGE
    CONSTANT 0.0
END PERIOD

BEGIN PERIOD 226
  RECHARGE
    CONSTANT 0.0
END PERIOD

BEGIN PERIOD 227
  RECHARGE
    OPEN/CLOSE ../c34e46e7-d374-4d65-a127-d53133b75049/model.rch_227_RECHARGE.txt FACTOR 1.0
END PERIOD

BEGIN PERIOD 228
  RECHARGE
    OPEN/CLOSE ../c34e46e7-d374-4d65-a127-d53133b75049/model.rch_228_RECHARGE.txt FACTOR 1.0
END PERIOD

BEGIN PERIOD 229
  RECHARGE
    OPEN/CLOSE ../c34e46e7-d374-4d65-a127-d53133b75049/model.rch_229_RECHARGE.txt FACTOR 1.0
END PERIOD

BEGIN PERIOD 230
  RECHARGE
    OPEN/CLOSE ../c34e46e7-d374-4d65-a127-d53133b75049/model.rch_230_RECHARGE.txt FACTOR 1.0
END PERIOD

BEGIN PERIOD 231
  RECHARGE
    OPEN/CLOSE ../c34e46e7-d374-4d65-a127-d53133b75049/model.rch_231_RECHARGE.txt FACTOR 1.0
END PERIOD

BEGIN PERIOD 232
  RECHARGE
    CONSTANT 0.0
END PERIOD

BEGIN PERIOD 233
  RECHARGE
    CONSTANT 0.0
END PERIOD

BEGIN PERIOD 234
  RECHARGE
    OPEN/CLOSE ../c34e46e7-d374-4d65-a127-d53133b75049/model.rch_234_RECHARGE.txt FACTOR 1.0
END PERIOD

BEGIN PERIOD 235
  RECHARGE
    OPEN/CLOSE ../c34e46e7-d374-4d65-a127-d53133b75049/model.rch_235_RECHARGE.txt FACTOR 1.0
END PERIOD

BEGIN PERIOD 236
  RECHARGE
    OPEN/CLOSE ../c34e46e7-d374-4d65-a127-d53133b75049/model.rch_236_RECHARGE.txt FACTOR 1.0
END PERIOD

BEGIN PERIOD 237
  RECHARGE
    OPEN/CLOSE ../c34e46e7-d374-4d65-a127-d53133b75049/model.rch_237_RECHARGE.txt FACTOR 1.0
END PERIOD

BEGIN PERIOD 238
  RECHARGE
    OPEN/CLOSE ../c34e46e7-d374-4d65-a127-d53133b75049/model.rch_238_RECHARGE.txt FACTOR 1.0
END PERIOD

BEGIN PERIOD 239
  RECHARGE
    OPEN/CLOSE ../c34e46e7-d374-4d65-a127-d53133b75049/model.rch_239_RECHARGE.txt FACTOR 1.0
END PERIOD

BEGIN PERIOD 240
  RECHARGE
    OPEN/CLOSE ../c34e46e7-d374-4d65-a127-d53133b75049/model.rch_240_RECHARGE.txt FACTOR 1.0
END PERIOD

BEGIN PERIOD 241
  RECHARGE
    OPEN/CLOSE ../c34e46e7-d374-4d65-a127-d53133b75049/model.rch_241_RECHARGE.txt FACTOR 1.0
END PERIOD

BEGIN PERIOD 242
  RECHARGE
    OPEN/CLOSE ../c34e46e7-d374-4d65-a127-d53133b75049/model.rch_242_RECHARGE.txt FACTOR 1.0
END PERIOD

BEGIN PERIOD 243
  RECHARGE
    OPEN/CLOSE ../c34e46e7-d374-4d65-a127-d53133b75049/model.rch_243_RECHARGE.txt FACTOR 1.0
END PERIOD

BEGIN PERIOD 244
  RECHARGE
    OPEN/CLOSE ../c34e46e7-d374-4d65-a127-d53133b75049/model.rch_244_RECHARGE.txt FACTOR 1.0
END PERIOD

BEGIN PERIOD 245
  RECHARGE
    CONSTANT 0.0
END PERIOD

BEGIN PERIOD 246
  RECHARGE
    CONSTANT 0.0
END PERIOD

BEGIN PERIOD 247
  RECHARGE
    CONSTANT 0.0
END PERIOD

BEGIN PERIOD 248
  RECHARGE
    CONSTANT 0.0
END PERIOD

BEGIN PERIOD 249
  RECHARGE
    CONSTANT 0.0
END PERIOD

BEGIN PERIOD 250
  RECHARGE
    CONSTANT 0.0
END PERIOD

BEGIN PERIOD 251
  RECHARGE
    CONSTANT 0.0
END PERIOD

BEGIN PERIOD 252
  RECHARGE
    CONSTANT 0.0
END PERIOD

BEGIN PERIOD 253
  RECHARGE
    CONSTANT 0.0
END PERIOD

BEGIN PERIOD 254
  RECHARGE
    OPEN/CLOSE ../c34e46e7-d374-4d65-a127-d53133b75049/model.rch_254_RECHARGE.txt FACTOR 1.0
END PERIOD

BEGIN PERIOD 255
  RECHARGE
    OPEN/CLOSE ../c34e46e7-d374-4d65-a127-d53133b75049/model.rch_255_RECHARGE.txt FACTOR 1.0
END PERIOD

BEGIN PERIOD 256
  RECHARGE
    OPEN/CLOSE ../c34e46e7-d374-4d65-a127-d53133b75049/model.rch_256_RECHARGE.txt FACTOR 1.0
END PERIOD

BEGIN PERIOD 257
  RECHARGE
    CONSTANT 0.0
END PERIOD

BEGIN PERIOD 258
  RECHARGE
    OPEN/CLOSE ../c34e46e7-d374-4d65-a127-d53133b75049/model.rch_258_RECHARGE.txt FACTOR 1.0
END PERIOD

BEGIN PERIOD 259
  RECHARGE
    OPEN/CLOSE ../c34e46e7-d374-4d65-a127-d53133b75049/model.rch_259_RECHARGE.txt FACTOR 1.0
END PERIOD

BEGIN PERIOD 260
  RECHARGE
    OPEN/CLOSE ../c34e46e7-d374-4d65-a127-d53133b75049/model.rch_260_RECHARGE.txt FACTOR 1.0
END PERIOD

BEGIN PERIOD 261
  RECHARGE
    CONSTANT 0.0
END PERIOD

BEGIN PERIOD 262
  RECHARGE
    CONSTANT 0.0
END PERIOD

BEGIN PERIOD 263
  RECHARGE
    OPEN/CLOSE ../c34e46e7-d374-4d65-a127-d53133b75049/model.rch_263_RECHARGE.txt FACTOR 1.0
END PERIOD

BEGIN PERIOD 264
  RECHARGE