BEGIN OPTIONS
  READASARRAYS
  PRINT_INPUT
  PRINT_FLOWS
  SAVE_FLOWS
END OPTIONS

BEGIN PERIOD 1
  SURFACE
    OPEN/CLOSE ../e58ed525-c537-4843-a3c3-fccbfbd238d4/model.evt_001_SURFACE.txt FACTOR 1.0
  RATE
    OPEN/CLOSE ../e58ed525-c537-4843-a3c3-fccbfbd238d4/model.evt_001_RATE.txt FACTOR 1.0
  DEPTH
    OPEN/CLOSE ../e58ed525-c537-4843-a3c3-fccbfbd238d4/model.evt_001_DEPTH.txt FACTOR 1.0
END PERIOD

BEGIN PERIOD 2
  SURFACE
    OPEN/CLOSE ../e58ed525-c537-4843-a3c3-fccbfbd238d4/model.evt_002_SURFACE.txt FACTOR 1.0
  RATE
    OPEN/CLOSE ../e58ed525-c537-4843-a3c3-fccbfbd238d4/model.evt_002_RATE.txt FACTOR 1.0
  DEPTH
    OPEN/CLOSE ../e58ed525-c537-4843-a3c3-fccbfbd238d4/model.evt_002_DEPTH.txt FACTOR 1.0
END PERIOD

BEGIN PERIOD 3
  SURFACE
    OPEN/CLOSE ../e58ed525-c537-4843-a3c3-fccbfbd238d4/model.evt_003_SURFACE.txt FACTOR 1.0
  RATE
    OPEN/CLOSE ../e58ed525-c537-4843-a3c3-fccbfbd238d4/model.evt_003_RATE.txt FACTOR 1.0
  DEPTH
    OPEN/CLOSE ../e58ed525-c537-4843-a3c3-fccbfbd238d4/model.evt_003_DEPTH.txt FACTOR 1.0
END PERIOD

BEGIN PERIOD 4
  SURFACE
    OPEN/CLOSE ../e58ed525-c537-4843-a3c3-fccbfbd238d4/model.evt_004_SURFACE.txt FACTOR 1.0
  RATE
    OPEN/CLOSE ../e58ed525-c537-4843-a3c3-fccbfbd238d4/model.evt_004_RATE.txt FACTOR 1.0
  DEPTH
    OPEN/CLOSE ../e58ed525-c537-4843-a3c3-fccbfbd238d4/model.evt_004_DEPTH.txt FACTOR 1.0
END PERIOD

BEGIN PERIOD 5
  SURFACE
    OPEN/CLOSE ../e58ed525-c537-4843-a3c3-fccbfbd238d4/model.evt_005_SURFACE.txt FACTOR 1.0
  RATE
    OPEN/CLOSE ../e58ed525-c537-4843-a3c3-fccbfbd238d4/model.evt_005_RATE.txt FACTOR 1.0
  DEPTH
    OPEN/CLOSE ../e58ed525-c537-4843-a3c3-fccbfbd238d4/model.evt_005_DEPTH.txt FACTOR 1.0
END PERIOD

BEGIN PERIOD 6
  SURFACE
    OPEN/CLOSE ../e58ed525-c537-4843-a3c3-fccbfbd238d4/model.evt_006_SURFACE.txt FACTOR 1.0
  RATE
    OPEN/CLOSE ../e58ed525-c537-4843-a3c3-fccbfbd238d4/model.evt_006_RATE.txt FACTOR 1.0
  DEPTH
    OPEN/CLOSE ../e58ed525-c537-4843-a3c3-fccbfbd238d4/model.evt_006_DEPTH.txt FACTOR 1.0
END PERIOD

BEGIN PERIOD 7
  SURFACE
    OPEN/CLOSE ../e58ed525-c537-4843-a3c3-fccbfbd238d4/model.evt_007_SURFACE.txt FACTOR 1.0
  RATE
    OPEN/CLOSE ../e58ed525-c537-4843-a3c3-fccbfbd238d4/model.evt_007_RATE.txt FACTOR 1.0
  DEPTH
    OPEN/CLOSE ../e58ed525-c537-4843-a3c3-fccbfbd238d4/model.evt_007_DEPTH.txt FACTOR 1.0
END PERIOD

BEGIN PERIOD 8
  SURFACE
    OPEN/CLOSE ../e58ed525-c537-4843-a3c3-fccbfbd238d4/model.evt_008_SURFACE.txt FACTOR 1.0
  RATE
    OPEN/CLOSE ../e58ed525-c537-4843-a3c3-fccbfbd238d4/model.evt_008_RATE.txt FACTOR 1.0
  DEPTH
    OPEN/CLOSE ../e58ed525-c537-4843-a3c3-fccbfbd238d4/model.evt_008_DEPTH.txt FACTOR 1.0
END PERIOD

BEGIN PERIOD 9
  SURFACE
    OPEN/CLOSE ../e58ed525-c537-4843-a3c3-fccbfbd238d4/model.evt_009_SURFACE.txt FACTOR 1.0
  RATE
    OPEN/CLOSE ../e58ed525-c537-4843-a3c3-fccbfbd238d4/model.evt_009_RATE.txt FACTOR 1.0
  DEPTH
    OPEN/CLOSE ../e58ed525-c537-4843-a3c3-fccbfbd238d4/model.evt_009_DEPTH.txt FACTOR 1.0
END PERIOD

BEGIN PERIOD 10
  SURFACE
    OPEN/CLOSE ../e58ed525-c537-4843-a3c3-fccbfbd238d4/model.evt_010_SURFACE.txt FACTOR 1.0
  RATE
    OPEN/CLOSE ../e58ed525-c537-4843-a3c3-fccbfbd238d4/model.evt_010_RATE.txt FACTOR 1.0
  DEPTH
    OPEN/CLOSE ../e58ed525-c537-4843-a3c3-fccbfbd238d4/model.evt_010_DEPTH.txt FACTOR 1.0
END PERIOD

BEGIN PERIOD 11
  SURFACE
    OPEN/CLOSE ../e58ed525-c537-4843-a3c3-fccbfbd238d4/model.evt_011_SURFACE.txt FACTOR 1.0
  RATE
    OPEN/CLOSE ../e58ed525-c537-4843-a3c3-fccbfbd238d4/model.evt_011_RATE.txt FACTOR 1.0
  DEPTH
    OPEN/CLOSE ../e58ed525-c537-4843-a3c3-fccbfbd238d4/model.evt_011_DEPTH.txt FACTOR 1.0
END PERIOD

BEGIN PERIOD 12
  SURFACE
    OPEN/CLOSE ../e58ed525-c537-4843-a3c3-fccbfbd238d4/model.evt_012_SURFACE.txt FACTOR 1.0
  RATE
    OPEN/CLOSE ../e58ed525-c537-4843-a3c3-fccbfbd238d4/model.evt_012_RATE.txt FACTOR 1.0
  DEPTH
    OPEN/CLOSE ../e58ed525-c537-4843-a3c3-fccbfbd238d4/model.evt_012_DEPTH.txt FACTOR 1.0
END PERIOD

BEGIN PERIOD 13
  SURFACE
    OPEN/CLOSE ../e58ed525-c537-4843-a3c3-fccbfbd238d4/model.evt_013_SURFACE.txt FACTOR 1.0
  RATE
    OPEN/CLOSE ../e58ed525-c537-4843-a3c3-fccbfbd238d4/model.evt_013_RATE.txt FACTOR 1.0
  DEPTH
    OPEN/CLOSE ../e58ed525-c537-4843-a3c3-fccbfbd238d4/model.evt_013_DEPTH.txt FACTOR 1.0
END PERIOD

BEGIN PERIOD 14
  SURFACE
    OPEN/CLOSE ../e58ed525-c537-4843-a3c3-fccbfbd238d4/model.evt_014_SURFACE.txt FACTOR 1.0
  RATE
    OPEN/CLOSE ../e58ed525-c537-4843-a3c3-fccbfbd238d4/model.evt_014_RATE.txt FACTOR 1.0
  DEPTH
    OPEN/CLOSE ../e58ed525-c537-4843-a3c3-fccbfbd238d4/model.evt_014_DEPTH.txt FACTOR 1.0
END PERIOD

BEGIN PERIOD 15
  SURFACE
    OPEN/CLOSE ../e58ed525-c537-4843-a3c3-fccbfbd238d4/model.evt_015_SURFACE.txt FACTOR 1.0
  RATE
    OPEN/CLOSE ../e58ed525-c537-4843-a3c3-fccbfbd238d4/model.evt_015_RATE.txt FACTOR 1.0
  DEPTH
    OPEN/CLOSE ../e58ed525-c537-4843-a3c3-fccbfbd238d4/model.evt_015_DEPTH.txt FACTOR 1.0
END PERIOD

BEGIN PERIOD 16
  SURFACE
    OPEN/CLOSE ../e58ed525-c537-4843-a3c3-fccbfbd238d4/model.evt_016_SURFACE.txt FACTOR 1.0
  RATE
    OPEN/CLOSE ../e58ed525-c537-4843-a3c3-fccbfbd238d4/model.evt_016_RATE.txt FACTOR 1.0
  DEPTH
    OPEN/CLOSE ../e58ed525-c537-4843-a3c3-fccbfbd238d4/model.evt_016_DEPTH.txt FACTOR 1.0
END PERIOD

BEGIN PERIOD 17
  SURFACE
    OPEN/CLOSE ../e58ed525-c537-4843-a3c3-fccbfbd238d4/model.evt_017_SURFACE.txt FACTOR 1.0
  RATE
    OPEN/CLOSE ../e58ed525-c537-4843-a3c3-fccbfbd238d4/model.evt_017_RATE.txt FACTOR 1.0
  DEPTH
    OPEN/CLOSE ../e58ed525-c537-4843-a3c3-fccbfbd238d4/model.evt_017_DEPTH.txt FACTOR 1.0
END PERIOD

BEGIN PERIOD 18
  SURFACE
    OPEN/CLOSE ../e58ed525-c537-4843-a3c3-fccbfbd238d4/model.evt_018_SURFACE.txt FACTOR 1.0
  RATE
    OPEN/CLOSE ../e58ed525-c537-4843-a3c3-fccbfbd238d4/model.evt_018_RATE.txt FACTOR 1.0
  DEPTH
    OPEN/CLOSE ../e58ed525-c537-4843-a3c3-fccbfbd238d4/model.evt_018_DEPTH.txt FACTOR 1.0
END PERIOD

BEGIN PERIOD 19
  SURFACE
    OPEN/CLOSE ../e58ed525-c537-4843-a3c3-fccbfbd238d4/model.evt_019_SURFACE.txt FACTOR 1.0
  RATE
    OPEN/CLOSE ../e58ed525-c537-4843-a3c3-fccbfbd238d4/model.evt_019_RATE.txt FACTOR 1.0
  DEPTH
    OPEN/CLOSE ../e58ed525-c537-4843-a3c3-fccbfbd238d4/model.evt_019_DEPTH.txt FACTOR 1.0
END PERIOD

BEGIN PERIOD 20
  SURFACE
    OPEN/CLOSE ../e58ed525-c537-4843-a3c3-fccbfbd238d4/model.evt_020_SURFACE.txt FACTOR 1.0
  RATE
    OPEN/CLOSE ../e58ed525-c537-4843-a3c3-fccbfbd238d4/model.evt_020_RATE.txt FACTOR 1.0
  DEPTH
    OPEN/CLOSE ../e58ed525-c537-4843-a3c3-fccbfbd238d4/model.evt_020_DEPTH.txt FACTOR 1.0
END PERIOD

BEGIN PERIOD 21
  SURFACE
    OPEN/CLOSE ../e58ed525-c537-4843-a3c3-fccbfbd238d4/model.evt_021_SURFACE.txt FACTOR 1.0
  RATE
    OPEN/CLOSE ../e58ed525-c537-4843-a3c3-fccbfbd238d4/model.evt_021_RATE.txt FACTOR 1.0
  DEPTH
    OPEN/CLOSE ../e58ed525-c537-4843-a3c3-fccbfbd238d4/model.evt_021_DEPTH.txt FACTOR 1.0
END PERIOD

BEGIN PERIOD 22
  SURFACE
    OPEN/CLOSE ../e58ed525-c537-4843-a3c3-fccbfbd238d4/model.evt_022_SURFACE.txt FACTOR 1.0
  RATE
    OPEN/CLOSE ../e58ed525-c537-4843-a3c3-fccbfbd238d4/model.evt_022_RATE.txt FACTOR 1.0
  DEPTH
    OPEN/CLOSE ../e58ed525-c537-4843-a3c3-fccbfbd238d4/model.evt_022_DEPTH.txt FACTOR 1.0
END PERIOD

BEGIN PERIOD 23
  SURFACE
    OPEN/CLOSE ../e58ed525-c537-4843-a3c3-fccbfbd238d4/model.evt_023_SURFACE.txt FACTOR 1.0
  RATE
    OPEN/CLOSE ../e58ed525-c537-4843-a3c3-fccbfbd238d4/model.evt_023_RATE.txt FACTOR 1.0
  DEPTH
    OPEN/CLOSE ../e58ed525-c537-4843-a3c3-fccbfbd238d4/model.evt_023_DEPTH.txt FACTOR 1.0
END PERIOD

BEGIN PERIOD 24
  SURFACE
    OPEN/CLOSE ../e58ed525-c537-4843-a3c3-fccbfbd238d4/model.evt_024_SURFACE.txt FACTOR 1.0
  RATE
    OPEN/CLOSE ../e58ed525-c537-4843-a3c3-fccbfbd238d4/model.evt_024_RATE.txt FACTOR 1.0
  DEPTH
    OPEN/CLOSE ../e58ed525-c537-4843-a3c3-fccbfbd238d4/model.evt_024_DEPTH.txt FACTOR 1.0
END PERIOD

BEGIN PERIOD 25
  SURFACE
    OPEN/CLOSE ../e58ed525-c537-4843-a3c3-fccbfbd238d4/model.evt_025_SURFACE.txt FACTOR 1.0
  RATE
    OPEN/CLOSE ../e58ed525-c537-4843-a3c3-fccbfbd238d4/model.evt_025_RATE.txt FACTOR 1.0
  DEPTH
    OPEN/CLOSE ../e58ed525-c537-4843-a3c3-fccbfbd238d4/model.evt_025_DEPTH.txt FACTOR 1.0
END PERIOD

BEGIN PERIOD 26
  SURFACE
    OPEN/CLOSE ../e58ed525-c537-4843-a3c3-fccbfbd238d4/model.evt_026_SURFACE.txt FACTOR 1.0
  RATE
    OPEN/CLOSE ../e58ed525-c537-4843-a3c3-fccbfbd238d4/model.evt_026_RATE.txt FACTOR 1.0
  DEPTH
    OPEN/CLOSE ../e58ed525-c537-4843-a3c3-fccbfbd238d4/model.evt_026_DEPTH.txt FACTOR 1.0
END PERIOD

BEGIN PERIOD 27
  SURFACE
    OPEN/CLOSE ../e58ed525-c537-4843-a3c3-fccbfbd238d4/model.evt_027_SURFACE.txt FACTOR 1.0
  RATE
    OPEN/CLOSE ../e58ed525-c537-4843-a3c3-fccbfbd238d4/model.evt_027_RATE.txt FACTOR 1.0
  DEPTH
    OPEN/CLOSE ../e58ed525-c537-4843-a3c3-fccbfbd238d4/model.evt_027_DEPTH.txt FACTOR 1.0
END PERIOD

BEGIN PERIOD 28
  SURFACE
    OPEN/CLOSE ../e58ed525-c537-4843-a3c3-fccbfbd238d4/model.evt_028_SURFACE.txt FACTOR 1.0
  RATE
    OPEN/CLOSE ../e58ed525-c537-4843-a3c3-fccbfbd238d4/model.evt_028_RATE.txt FACTOR 1.0
  DEPTH
    OPEN/CLOSE ../e58ed525-c537-4843-a3c3-fccbfbd238d4/model.evt_028_DEPTH.txt FACTOR 1.0
END PERIOD

BEGIN PERIOD 29
  SURFACE
    OPEN/CLOSE ../e58ed525-c537-4843-a3c3-fccbfbd238d4/model.evt_029_SURFACE.txt FACTOR 1.0
  RATE
    OPEN/CLOSE ../e58ed525-c537-4843-a3c3-fccbfbd238d4/model.evt_029_RATE.txt FACTOR 1.0
  DEPTH
    OPEN/CLOSE ../e58ed525-c537-4843-a3c3-fccbfbd238d4/model.evt_029_DEPTH.txt FACTOR 1.0
END PERIOD

BEGIN PERIOD 30
  SURFACE
    OPEN/CLOSE ../e58ed525-c537-4843-a3c3-fccbfbd238d4/model.evt_030_SURFACE.txt FACTOR 1.0
  RATE
    OPEN/CLOSE ../e58ed525-c537-4843-a3c3-fccbfbd238d4/model.evt_030_RATE.txt FACTOR 1.0
  DEPTH
    OPEN/CLOSE ../e58ed525-c537-4843-a3c3-fccbfbd238d4/model.evt_030_DEPTH.txt FACTOR 1.0
END PERIOD

BEGIN PERIOD 31
  SURFACE
    OPEN/CLOSE ../e58ed525-c537-4843-a3c3-fccbfbd238d4/model.evt_031_SURFACE.txt FACTOR 1.0
  RATE
    OPEN/CLOSE ../e58ed525-c537-4843-a3c3-fccbfbd238d4/model.evt_031_RATE.txt FACTOR 1.0
  DEPTH
    OPEN/CLOSE ../e58ed525-c537-4843-a3c3-fccbfbd238d4/model.evt_031_DEPTH.txt FACTOR 1.0
END PERIOD

BEGIN PERIOD 32
  SURFACE
    OPEN/CLOSE ../e58ed525-c537-4843-a3c3-fccbfbd238d4/model.evt_032_SURFACE.txt FACTOR 1.0
  RATE
    OPEN/CLOSE ../e58ed525-c537-4843-a3c3-fccbfbd238d4/model.evt_032_RATE.txt FACTOR 1.0
  DEPTH
    OPEN/CLOSE ../e58ed525-c537-4843-a3c3-fccbfbd238d4/model.evt_032_DEPTH.txt FACTOR 1.0
END PERIOD

BEGIN PERIOD 33
  SURFACE
    OPEN/CLOSE ../e58ed525-c537-4843-a3c3-fccbfbd238d4/model.evt_033_SURFACE.txt FACTOR 1.0
  RATE
    OPEN/CLOSE ../e58ed525-c537-4843-a3c3-fccbfbd238d4/model.evt_033_RATE.txt FACTOR 1.0
  DEPTH
    OPEN/CLOSE ../e58ed525-c537-4843-a3c3-fccbfbd238d4/model.evt_033_DEPTH.txt FACTOR 1.0
END PERIOD

BEGIN PERIOD 34
  SURFACE
    OPEN/CLOSE ../e58ed525-c537-4843-a3c3-fccbfbd238d4/model.evt_034_SURFACE.txt FACTOR 1.0
  RATE
    OPEN/CLOSE ../e58ed525-c537-4843-a3c3-fccbfbd238d4/model.evt_034_RATE.txt FACTOR 1.0
  DEPTH
    OPEN/CLOSE ../e58ed525-c537-4843-a3c3-fccbfbd238d4/model.evt_034_DEPTH.txt FACTOR 1.0
END PERIOD

BEGIN PERIOD 35
  SURFACE
    OPEN/CLOSE ../e58ed525-c537-4843-a3c3-fccbfbd238d4/model.evt_035_SURFACE.txt FACTOR 1.0
  RATE
    OPEN/CLOSE ../e58ed525-c537-4843-a3c3-fccbfbd238d4/model.evt_035_RATE.txt FACTOR 1.0
  DEPTH
    OPEN/CLOSE ../e58ed525-c537-4843-a3c3-fccbfbd238d4/model.evt_035_DEPTH.txt FACTOR 1.0
END PERIOD

BEGIN PERIOD 36
  SURFACE
    OPEN/CLOSE ../e58ed525-c537-4843-a3c3-fccbfbd238d4/model.evt_036_SURFACE.txt FACTOR 1.0
  RATE
    OPEN/CLOSE ../e58ed525-c537-4843-a3c3-fccbfbd238d4/model.evt_036_RATE.txt FACTOR 1.0
  DEPTH
    OPEN/CLOSE ../e58ed525-c537-4843-a3c3-fccbfbd238d4/model.evt_036_DEPTH.txt FACTOR 1.0
END PERIOD

BEGIN PERIOD 37
  SURFACE
    OPEN/CLOSE ../e58ed525-c537-4843-a3c3-fccbfbd238d4/model.evt_037_SURFACE.txt FACTOR 1.0
  RATE
    OPEN/CLOSE ../e58ed525-c537-4843-a3c3-fccbfbd238d4/model.evt_037_RATE.txt FACTOR 1.0
  DEPTH
    OPEN/CLOSE ../e58ed525-c537-4843-a3c3-fccbfbd238d4/model.evt_037_DEPTH.txt FACTOR 1.0
END PERIOD

BEGIN PERIOD 38
  SURFACE
    OPEN/CLOSE ../e58ed525-c537-4843-a3c3-fccbfbd238d4/model.evt_038_SURFACE.txt FACTOR 1.0
  RATE
    OPEN/CLOSE ../e58ed525-c537-4843-a3c3-fccbfbd238d4/model.evt_038_RATE.txt FACTOR 1.0
  DEPTH
    OPEN/CLOSE ../e58ed525-c537-4843-a3c3-fccbfbd238d4/model.evt_038_DEPTH.txt FACTOR 1.0
END PERIOD

BEGIN PERIOD 39
  SURFACE
    OPEN/CLOSE ../e58ed525-c537-4843-a3c3-fccbfbd238d4/model.evt_039_SURFACE.txt FACTOR 1.0
  RATE
    OPEN/CLOSE ../e58ed525-c537-4843-a3c3-fccbfbd238d4/model.evt_039_RATE.txt FACTOR 1.0
  DEPTH
    OPEN/CLOSE ../e58ed525-c537-4843-a3c3-fccbfbd238d4/model.evt_039_DEPTH.txt FACTOR 1.0
END PERIOD

BEGIN PERIOD 40
  SURFACE
    OPEN/CLOSE ../e58ed525-c537-4843-a3c3-fccbfbd238d4/model.evt_040_SURFACE.txt FACTOR 1.0
  RATE
    OPEN/CLOSE ../e58ed525-c537-4843-a3c3-fccbfbd238d4/model.evt_040_RATE.txt FACTOR 1.0
  DEPTH
    OPEN/CLOSE ../e58ed525-c537-4843-a3c3-fccbfbd238d4/model.evt_040_DEPTH.txt FACTOR 1.0
END PERIOD

BEGIN PERIOD 41
  SURFACE
    OPEN/CLOSE ../e58ed525-c537-4843-a3c3-fccbfbd238d4/model.evt_041_SURFACE.txt FACTOR 1.0
  RATE
    OPEN/CLOSE ../e58ed525-c537-4843-a3c3-fccbfbd238d4/model.evt_041_RATE.txt FACTOR 1.0
  DEPTH
    OPEN/CLOSE ../e58ed525-c537-4843-a3c3-fccbfbd238d4/model.evt_041_DEPTH.txt FACTOR 1.0
END PERIOD

BEGIN PERIOD 42
  SURFACE
    OPEN/CLOSE ../e58ed525-c537-4843-a3c3-fccbfbd238d4/model.evt_042_SURFACE.txt FACTOR 1.0
  RATE
    OPEN/CLOSE ../e58ed525-c537-4843-a3c3-fccbfbd238d4/model.evt_042_RATE.txt FACTOR 1.0
  DEPTH
    OPEN/CLOSE ../e58ed525-c537-4843-a3c3-fccbfbd238d4/model.evt_042_DEPTH.txt FACTOR 1.0
END PERIOD

BEGIN PERIOD 43
  SURFACE
    OPEN/CLOSE ../e58ed525-c537-4843-a3c3-fccbfbd238d4/model.evt_043_SURFACE.txt FACTOR 1.0
  RATE
    OPEN/CLOSE ../e58ed525-c537-4843-a3c3-fccbfbd238d4/model.evt_043_RATE.txt FACTOR 1.0
  DEPTH
    OPEN/CLOSE ../e58ed525-c537-4843-a3c3-fccbfbd238d4/model.evt_043_DEPTH.txt FACTOR 1.0
END PERIOD

BEGIN PERIOD 44
  SURFACE
    OPEN/CLOSE ../e58ed525-c537-4843-a3c3-fccbfbd238d4/model.evt_044_SURFACE.txt FACTOR 1.0
  RATE
    OPEN/CLOSE ../e58ed525-c537-4843-a3c3-fccbfbd238d4/model.evt_044_RATE.txt FACTOR 1.0
  DEPTH
    OPEN/CLOSE ../e58ed525-c537-4843-a3c3-fccbfbd238d4/model.evt_044_DEPTH.txt FACTOR 1.0
END PERIOD

BEGIN PERIOD 45
  SURFACE
    OPEN/CLOSE ../e58ed525-c537-4843-a3c3-fccbfbd238d4/model.evt_045_SURFACE.txt FACTOR 1.0
  RATE
    OPEN/CLOSE ../e58ed525-c537-4843-a3c3-fccbfbd238d4/model.evt_045_RATE.txt FACTOR 1.0
  DEPTH
    OPEN/CLOSE ../e58ed525-c537-4843-a3c3-fccbfbd238d4/model.evt_045_DEPTH.txt FACTOR 1.0
END PERIOD

BEGIN PERIOD 46
  SURFACE
    OPEN/CLOSE ../e58ed525-c537-4843-a3c3-fccbfbd238d4/model.evt_046_SURFACE.txt FACTOR 1.0
  RATE
    OPEN/CLOSE ../e58ed525-c537-4843-a3c3-fccbfbd238d4/model.evt_046_RATE.txt FACTOR 1.0
  DEPTH
    OPEN/CLOSE ../e58ed525-c537-4843-a3c3-fccbfbd238d4/model.evt_046_DEPTH.txt FACTOR 1.0
END PERIOD

BEGIN PERIOD 47
  SURFACE
    OPEN/CLOSE ../e58ed525-c537-4843-a3c3-fccbfbd238d4/model.evt_047_SURFACE.txt FACTOR 1.0
  RATE
    OPEN/CLOSE ../e58ed525-c537-4843-a3c3-fccbfbd238d4/model.evt_047_RATE.txt FACTOR 1.0
  DEPTH
    OPEN/CLOSE ../e58ed525-c537-4843-a3c3-fccbfbd238d4/model.evt_047_DEPTH.txt FACTOR 1.0
END PERIOD

BEGIN PERIOD 48
  SURFACE
    OPEN/CLOSE ../e58ed525-c537-4843-a3c3-fccbfbd238d4/model.evt_048_SURFACE.txt FACTOR 1.0
  RATE
    OPEN/CLOSE ../e58ed525-c537-4843-a3c3-fccbfbd238d4/model.evt_048_RATE.txt FACTOR 1.0
  DEPTH
    OPEN/CLOSE ../e58ed525-c537-4843-a3c3-fccbfbd238d4/model.evt_048_DEPTH.txt FACTOR 1.0
END PERIOD

BEGIN PERIOD 49
  SURFACE
    OPEN/CLOSE ../e58ed525-c537-4843-a3c3-fccbfbd238d4/model.evt_049_SURFACE.txt FACTOR 1.0
  RATE
    OPEN/CLOSE ../e58ed525-c537-4843-a3c3-fccbfbd238d4/model.evt_049_RATE.txt FACTOR 1.0
  DEPTH
    OPEN/CLOSE ../e58ed525-c537-4843-a3c3-fccbfbd238d4/model.evt_049_DEPTH.txt FACTOR 1.0
END PERIOD

BEGIN PERIOD 50
  SURFACE
    OPEN/CLOSE ../e58ed525-c537-4843-a3c3-fccbfbd238d4/model.evt_050_SURFACE.txt FACTOR 1.0
  RATE
    OPEN/CLOSE ../e58ed525-c537-4843-a3c3-fccbfbd238d4/model.evt_050_RATE.txt FACTOR 1.0
  DEPTH
    OPEN/CLOSE ../e58ed525-c537-4843-a3c3-fccbfbd238d4/model.evt_050_DEPTH.txt FACTOR 1.0
END PERIOD

BEGIN PERIOD 51
  SURFACE
    OPEN/CLOSE ../e58ed525-c537-4843-a3c3-fccbfbd238d4/model.evt_051_SURFACE.txt FACTOR 1.0
  RATE
    OPEN/CLOSE ../e58ed525-c537-4843-a3c3-fccbfbd238d4/model.evt_051_RATE.txt FACTOR 1.0
  DEPTH
    OPEN/CLOSE ../e58ed525-c537-4843-a3c3-fccbfbd238d4/model.evt_051_DEPTH.txt FACTOR 1.0
END PERIOD

BEGIN PERIOD 52
  SURFACE
    OPEN/CLOSE ../e58ed525-c537-4843-a3c3-fccbfbd238d4/model.evt_052_SURFACE.txt FACTOR 1.0
  RATE
    OPEN/CLOSE ../e58ed525-c537-4843-a3c3-fccbfbd238d4/model.evt_052_RATE.txt FACTOR 1.0
  DEPTH
    OPEN/CLOSE ../e58ed525-c537-4843-a3c3-fccbfbd238d4/model.evt_052_DEPTH.txt FACTOR 1.0
END PERIOD

BEGIN PERIOD 53
  SURFACE
    OPEN/CLOSE ../e58ed525-c537-4843-a3c3-fccbfbd238d4/model.evt_053_SURFACE.txt FACTOR 1.0
  RATE
    OPEN/CLOSE ../e58ed525-c537-4843-a3c3-fccbfbd238d4/model.evt_053_RATE.txt FACTOR 1.0
  DEPTH
    OPEN/CLOSE ../e58ed525-c537-4843-a3c3-fccbfbd238d4/model.evt_053_DEPTH.txt FACTOR 1.0
END PERIOD

BEGIN PERIOD 54
  SURFACE
    OPEN/CLOSE ../e58ed525-c537-4843-a3c3-fccbfbd238d4/model.evt_054_SURFACE.txt FACTOR 1.0
  RATE
    OPEN/CLOSE ../e58ed525-c537-4843-a3c3-fccbfbd238d4/model.evt_054_RATE.txt FACTOR 1.0
  DEPTH
    OPEN/CLOSE ../e58ed525-c537-4843-a3c3-fccbfbd238d4/model.evt_054_DEPTH.txt FACTOR 1.0
END PERIOD

BEGIN PERIOD 55
  SURFACE
    OPEN/CLOSE ../e58ed525-c537-4843-a3c3-fccbfbd238d4/model.evt_055_SURFACE.txt FACTOR 1.0
  RATE
    OPEN/CLOSE ../e58ed525-c537-4843-a3c3-fccbfbd238d4/model.evt_055_RATE.txt FACTOR 1.0
  DEPTH
    OPEN/CLOSE ../e58ed525-c537-4843-a3c3-fccbfbd238d4/model.evt_055_DEPTH.txt FACTOR 1.0
END PERIOD

BEGIN PERIOD 56
  SURFACE
    OPEN/CLOSE ../e58ed525-c537-4843-a3c3-fccbfbd238d4/model.evt_056_SURFACE.txt FACTOR 1.0
  RATE
    OPEN/CLOSE ../e58ed525-c537-4843-a3c3-fccbfbd238d4/model.evt_056_RATE.txt FACTOR 1.0
  DEPTH
    OPEN/CLOSE ../e58ed525-c537-4843-a3c3-fccbfbd238d4/model.evt_056_DEPTH.txt FACTOR 1.0
END PERIOD

BEGIN PERIOD 57
  SURFACE
    OPEN/CLOSE ../e58ed525-c537-4843-a3c3-fccbfbd238d4/model.evt_057_SURFACE.txt FACTOR 1.0
  RATE
    OPEN/CLOSE ../e58ed525-c537-4843-a3c3-fccbfbd238d4/model.evt_057_RATE.txt FACTOR 1.0
  DEPTH
    OPEN/CLOSE ../e58ed525-c537-4843-a3c3-fccbfbd238d4/model.evt_057_DEPTH.txt FACTOR 1.0
END PERIOD

BEGIN PERIOD 58
  SURFACE
    OPEN/CLOSE ../e58ed525-c537-4843-a3c3-fccbfbd238d4/model.evt_058_SURFACE.txt FACTOR 1.0
  RATE
    OPEN/CLOSE ../e58ed525-c537-4843-a3c3-fccbfbd238d4/model.evt_058_RATE.txt FACTOR 1.0
  DEPTH
    OPEN/CLOSE ../e58ed525-c537-4843-a3c3-fccbfbd238d4/model.evt_058_DEPTH.txt FACTOR 1.0
END PERIOD

BEGIN PERIOD 59
  SURFACE
    OPEN/CLOSE ../e58ed525-c537-4843-a3c3-fccbfbd238d4/model.evt_059_SURFACE.txt FACTOR 1.0
  RATE
    OPEN/CLOSE ../e58ed525-c537-4843-a3c3-fccbfbd238d4/model.evt_059_RATE.txt FACTOR 1.0
  DEPTH
    OPEN/CLOSE ../e58ed525-c537-4843-a3c3-fccbfbd238d4/model.evt_059_DEPTH.txt FACTOR 1.0
END PERIOD

BEGIN PERIOD 60
  SURFACE
    OPEN/CLOSE ../e58ed525-c537-4843-a3c3-fccbfbd238d4/model.evt_060_SURFACE.txt FACTOR 1.0
  RATE
    OPEN/CLOSE ../e58ed525-c537-4843-a3c3-fccbfbd238d4/model.evt_060_RATE.txt FACTOR 1.0
  DEPTH
    OPEN/CLOSE ../e58ed525-c537-4843-a3c3-fccbfbd238d4/model.evt_060_DEPTH.txt FACTOR 1.0
END PERIOD

BEGIN PERIOD 61
  SURFACE
    OPEN/CLOSE ../e58ed525-c537-4843-a3c3-fccbfbd238d4/model.evt_061_SURFACE.txt FACTOR 1.0
  RATE
    OPEN/CLOSE ../e58ed525-c537-4843-a3c3-fccbfbd238d4/model.evt_061_RATE.txt FACTOR 1.0
  DEPTH
    OPEN/CLOSE ../e58ed525-c537-4843-a3c3-fccbfbd238d4/model.evt_061_DEPTH.txt FACTOR 1.0
END PERIOD

BEGIN PERIOD 62
  SURFACE
    OPEN/CLOSE ../e58ed525-c537-4843-a3c3-fccbfbd238d4/model.evt_062_SURFACE.txt FACTOR 1.0
  RATE
    OPEN/CLOSE ../e58ed525-c537-4843-a3c3-fccbfbd238d4/model.evt_062_RATE.txt FACTOR 1.0
  DEPTH
    OPEN/CLOSE ../e58ed525-c537-4843-a3c3-fccbfbd238d4/model.evt_062_DEPTH.txt FACTOR 1.0
END PERIOD

BEGIN PERIOD 63
  SURFACE
    OPEN/CLOSE ../e58ed525-c537-4843-a3c3-fccbfbd238d4/model.evt_063_SURFACE.txt FACTOR 1.0
  RATE
    OPEN/CLOSE ../e58ed525-c537-4843-a3c3-fccbfbd238d4/model.evt_063_RATE.txt FACTOR 1.0
  DEPTH
    OPEN/CLOSE ../e58ed525-c537-4843-a3c3-fccbfbd238d4/model.evt_063_DEPTH.txt FACTOR 1.0
END PERIOD

BEGIN PERIOD 64
  SURFACE
    OPEN/CLOSE ../e58ed525-c537-4843-a3c3-fccbfbd238d4/model.evt_064_SURFACE.txt FACTOR 1.0
  RATE
    OPEN/CLOSE ../e58ed525-c537-4843-a3c3-fccbfbd238d4/model.evt_064_RATE.txt FACTOR 1.0
  DEPTH
    OPEN/CLOSE ../e58ed525-c537-4843-a3c3-fccbfbd238d4/model.evt_064_DEPTH.txt FACTOR 1.0
END PERIOD

BEGIN PERIOD 65
  SURFACE
    OPEN/CLOSE ../e58ed525-c537-4843-a3c3-fccbfbd238d4/model.evt_065_SURFACE.txt FACTOR 1.0
  RATE
    OPEN/CLOSE ../e58ed525-c537-4843-a3c3-fccbfbd238d4/model.evt_065_RATE.txt FACTOR 1.0
  DEPTH
    OPEN/CLOSE ../e58ed525-c537-4843-a3c3-fccbfbd238d4/model.evt_065_DEPTH.txt FACTOR 1.0
END PERIOD

BEGIN PERIOD 66
  SURFACE
    OPEN/CLOSE ../e58ed525-c537-4843-a3c3-fccbfbd238d4/model.evt_066_SURFACE.txt FACTOR 1.0
  RATE
    OPEN/CLOSE ../e58ed525-c537-4843-a3c3-fccbfbd238d4/model.evt_066_RATE.txt FACTOR 1.0
  DEPTH
    OPEN/CLOSE ../e58ed525-c537-4843-a3c3-fccbfbd238d4/model.evt_066_DEPTH.txt FACTOR 1.0
END PERIOD

BEGIN PERIOD 67
  SURFACE
    OPEN/CLOSE ../e58ed525-c537-4843-a3c3-fccbfbd238d4/model.evt_067_SURFACE.txt FACTOR 1.0
  RATE
    OPEN/CLOSE ../e58ed525-c537-4843-a3c3-fccbfbd238d4/model.evt_067_RATE.txt FACTOR 1.0
  DEPTH
    OPEN/CLOSE ../e58ed525-c537-4843-a3c3-fccbfbd238d4/model.evt_067_DEPTH.txt FACTOR 1.0
END PERIOD

BEGIN PERIOD 68
  SURFACE
    OPEN/CLOSE ../e58ed525-c537-4843-a3c3-fccbfbd238d4/model.evt_068_SURFACE.txt FACTOR 1.0
  RATE
    OPEN/CLOSE ../e58ed525-c537-4843-a3c3-fccbfbd238d4/model.evt_068_RATE.txt FACTOR 1.0
  DEPTH
    OPEN/CLOSE ../e58ed525-c537-4843-a3c3-fccbfbd238d4/model.evt_068_DEPTH.txt FACTOR 1.0
END PERIOD

BEGIN PERIOD 69
  SURFACE
    OPEN/CLOSE ../e58ed525-c537-4843-a3c3-fccbfbd238d4/model.evt_069_SURFACE.txt FACTOR 1.0
  RATE
    OPEN/CLOSE ../e58ed525-c537-4843-a3c3-fccbfbd238d4/model.evt_069_RATE.txt FACTOR 1.0
  DEPTH
    OPEN/CLOSE ../e58ed525-c537-4843-a3c3-fccbfbd238d4/model.evt_069_DEPTH.txt FACTOR 1.0
END PERIOD

BEGIN PERIOD 70
  SURFACE
    OPEN/CLOSE ../e58ed525-c537-4843-a3c3-fccbfbd238d4/model.evt_070_SURFACE.txt FACTOR 1.0
  RATE
    OPEN/CLOSE ../e58ed525-c537-4843-a3c3-fccbfbd238d4/model.evt_070_RATE.txt FACTOR 1.0
  DEPTH
    OPEN/CLOSE ../e58ed525-c537-4843-a3c3-fccbfbd238d4/model.evt_070_DEPTH.txt FACTOR 1.0
END PERIOD

BEGIN PERIOD 71
  SURFACE
    OPEN/CLOSE ../e58ed525-c537-4843-a3c3-fccbfbd238d4/model.evt_071_SURFACE.txt FACTOR 1.0
  RATE
    OPEN/CLOSE ../e58ed525-c537-4843-a3c3-fccbfbd238d4/model.evt_071_RATE.txt FACTOR 1.0
  DEPTH
    OPEN/CLOSE ../e58ed525-c537-4843-a3c3-fccbfbd238d4/model.evt_071_DEPTH.txt FACTOR 1.0
END PERIOD

BEGIN PERIOD 72
  SURFACE
    OPEN/CLOSE ../e58ed525-c537-4843-a3c3-fccbfbd238d4/model.evt_072_SURFACE.txt FACTOR 1.0
  RATE
    OPEN/CLOSE ../e58ed525-c537-4843-a3c3-fccbfbd238d4/model.evt_072_RATE.txt FACTOR 1.0
  DEPTH
    OPEN/CLOSE ../e58ed525-c537-4843-a3c3-fccbfbd238d4/model.evt_072_DEPTH.txt FACTOR 1.0
END PERIOD

BEGIN PERIOD 73
  SURFACE
    OPEN/CLOSE ../e58ed525-c537-4843-a3c3-fccbfbd238d4/model.evt_073_SURFACE.txt FACTOR 1.0
  RATE
    OPEN/CLOSE ../e58ed525-c537-4843-a3c3-fccbfbd238d4/model.evt_073_RATE.txt FACTOR 1.0
  DEPTH
    OPEN/CLOSE ../e58ed525-c537-4843-a3c3-fccbfbd238d4/model.evt_073_DEPTH.txt FACTOR 1.0
END PERIOD

BEGIN PERIOD 74
  SURFACE
    OPEN/CLOSE ../e58ed525-c537-4843-a3c3-fccbfbd238d4/model.evt_074_SURFACE.txt FACTOR 1.0
  RATE
    OPEN/CLOSE ../e58ed525-c537-4843-a3c3-fccbfbd238d4/model.evt_074_RATE.txt FACTOR 1.0
  DEPTH
    OPEN/CLOSE ../e58ed525-c537-4843-a3c3-fccbfbd238d4/model.evt_074_DEPTH.txt FACTOR 1.0
END PERIOD

BEGIN PERIOD 75
  SURFACE
    OPEN/CLOSE ../e58ed525-c537-4843-a3c3-fccbfbd238d4/model.evt_075_SURFACE.txt FACTOR 1.0
  RATE
    OPEN/CLOSE ../e58ed525-c537-4843-a3c3-fccbfbd238d4/model.evt_075_RATE.txt FACTOR 1.0
  DEPTH
    OPEN/CLOSE ../e58ed525-c537-4843-a3c3-fccbfbd238d4/model.evt_075_DEPTH.txt FACTOR 1.0
END PERIOD

BEGIN PERIOD 76
  SURFACE
    OPEN/CLOSE ../e58ed525-c537-4843-a3c3-fccbfbd238d4/model.evt_076_SURFACE.txt FACTOR 1.0
  RATE
    OPEN/CLOSE ../e58ed525-c537-4843-a3c3-fccbfbd238d4/model.evt_076_RATE.txt FACTOR 1.0
  DEPTH
    OPEN/CLOSE ../e58ed525-c537-4843-a3c3-fccbfbd238d4/model.evt_076_DEPTH.txt FACTOR 1.0
END PERIOD

BEGIN PERIOD 77
  SURFACE
    OPEN/CLOSE ../e58ed525-c537-4843-a3c3-fccbfbd238d4/model.evt_077_SURFACE.txt FACTOR 1.0
  RATE
    OPEN/CLOSE ../e58ed525-c537-4843-a3c3-fccbfbd238d4/model.evt_077_RATE.txt FACTOR 1.0
  DEPTH
    OPEN/CLOSE ../e58ed525-c537-4843-a3c3-fccbfbd238d4/model.evt_077_DEPTH.txt FACTOR 1.0
END PERIOD

BEGIN PERIOD 78
  SURFACE
    OPEN/CLOSE ../e58ed525-c537-4843-a3c3-fccbfbd238d4/model.evt_078_SURFACE.txt FACTOR 1.0
  RATE
    OPEN/CLOSE ../e58ed525-c537-4843-a3c3-fccbfbd238d4/model.evt_078_RATE.txt FACTOR 1.0
  DEPTH
    OPEN/CLOSE ../e58ed525-c537-4843-a3c3-fccbfbd238d4/model.evt_078_DEPTH.txt FACTOR 1.0
END PERIOD

BEGIN PERIOD 79
  SURFACE
    OPEN/CLOSE ../e58ed525-c537-4843-a3c3-fccbfbd238d4/model.evt_079_SURFACE.txt FACTOR 1.0
  RATE
    OPEN/CLOSE ../e58ed525-c537-4843-a3c3-fccbfbd238d4/model.evt_079_RATE.txt FACTOR 1.0
  DEPTH
    OPEN/CLOSE ../e58ed525-c537-4843-a3c3-fccbfbd238d4/model.evt_079_DEPTH.txt FACTOR 1.0
END PERIOD

BEGIN PERIOD 80
  SURFACE
    OPEN/CLOSE ../e58ed525-c537-4843-a3c3-fccbfbd238d4/model.evt_080_SURFACE.txt FACTOR 1.0
  RATE
    OPEN/CLOSE ../e58ed525-c537-4843-a3c3-fccbfbd238d4/model.evt_080_RATE.txt FACTOR 1.0
  DEPTH
    OPEN/CLOSE ../e58ed525-c537-4843-a3c3-fccbfbd238d4/model.evt_080_DEPTH.txt FACTOR 1.0
END PERIOD

BEGIN PERIOD 81
  SURFACE
    OPEN/CLOSE ../e58ed525-c537-4843-a3c3-fccbfbd238d4/model.evt_081_SURFACE.txt FACTOR 1.0
  RATE
    OPEN/CLOSE ../e58ed525-c537-4843-a3c3-fccbfbd238d4/model.evt_081_RATE.txt FACTOR 1.0
  DEPTH
    OPEN/CLOSE ../e58ed525-c537-4843-a3c3-fccbfbd238d4/model.evt_081_DEPTH.txt FACTOR 1.0
END PERIOD

BEGIN PERIOD 82
  SURFACE
    OPEN/CLOSE ../e58ed525-c537-4843-a3c3-fccbfbd238d4/model.evt_082_SURFACE.txt FACTOR 1.0
  RATE
    OPEN/CLOSE ../e58ed525-c537-4843-a3c3-fccbfbd238d4/model.evt_082_RATE.txt FACTOR 1.0
  DEPTH
    OPEN/CLOSE ../e58ed525-c537-4843-a3c3-fccbfbd238d4/model.evt_082_DEPTH.txt FACTOR 1.0
END PERIOD

BEGIN PERIOD 83
  SURFACE
    OPEN/CLOSE ../e58ed525-c537-4843-a3c3-fccbfbd238d4/model.evt_083_SURFACE.txt FACTOR 1.0
  RATE
    OPEN/CLOSE ../e58ed525-c537-4843-a3c3-fccbfbd238d4/model.evt_083_RATE.txt FACTOR 1.0
  DEPTH
    OPEN/CLOSE ../e58ed525-c537-4843-a3c3-fccbfbd238d4/model.evt_083_DEPTH.txt FACTOR 1.0
END PERIOD

BEGIN PERIOD 84
  SURFACE
    OPEN/CLOSE ../e58ed525-c537-4843-a3c3-fccbfbd238d4/model.evt_084_SURFACE.txt FACTOR 1.0
  RATE
    OPEN/CLOSE ../e58ed525-c537-4843-a3c3-fccbfbd238d4/model.evt_084_RATE.txt FACTOR 1.0
  DEPTH
    OPEN/CLOSE ../e58ed525-c537-4843-a3c3-fccbfbd238d4/model.evt_084_DEPTH.txt FACTOR 1.0
END PERIOD

BEGIN PERIOD 85
  SURFACE
    OPEN/CLOSE ../e58ed525-c537-4843-a3c3-fccbfbd238d4/model.evt_085_SURFACE.txt FACTOR 1.0
  RATE
    OPEN/CLOSE ../e58ed525-c537-4843-a3c3-fccbfbd238d4/model.evt_085_RATE.txt FACTOR 1.0
  DEPTH
    OPEN/CLOSE ../e58ed525-c537-4843-a3c3-fccbfbd238d4/model.evt_085_DEPTH.txt FACTOR 1.0
END PERIOD

BEGIN PERIOD 86
  SURFACE
    OPEN/CLOSE ../e58ed525-c537-4843-a3c3-fccbfbd238d4/model.evt_086_SURFACE.txt FACTOR 1.0
  RATE
    OPEN/CLOSE ../e58ed525-c537-4843-a3c3-fccbfbd238d4/model.evt_086_RATE.txt FACTOR 1.0
  DEPTH
    OPEN/CLOSE ../e58ed525-c537-4843-a3c3-fccbfbd238d4/model.evt_086_DEPTH.txt FACTOR 1.0
END PERIOD

BEGIN PERIOD 87
  SURFACE
    OPEN/CLOSE ../e58ed525-c537-4843-a3c3-fccbfbd238d4/model.evt_087_SURFACE.txt FACTOR 1.0
  RATE
    OPEN/CLOSE ../e58ed525-c537-4843-a3c3-fccbfbd238d4/model.evt_087_RATE.txt FACTOR 1.0
  DEPTH
    OPEN/CLOSE ../e58ed525-c537-4843-a3c3-fccbfbd238d4/model.evt_087_DEPTH.txt FACTOR 1.0
END PERIOD

BEGIN PERIOD 88
  SURFACE
    OPEN/CLOSE ../e58ed525-c537-4843-a3c3-fccbfbd238d4/model.evt_088_SURFACE.txt FACTOR 1.0
  RATE
    OPEN/CLOSE ../e58ed525-c537-4843-a3c3-fccbfbd238d4/model.evt_088_RATE.txt FACTOR 1.0
  DEPTH
    OPEN/CLOSE ../e58ed525-c537-4843-a3c3-fccbfbd238d4/model.evt_088_DEPTH.txt FACTOR 1.0
END PERIOD

BEGIN PERIOD 89
  SURFACE
    OPEN/CLOSE ../e58ed525-c537-4843-a3c3-fccbfbd238d4/model.evt_089_SURFACE.txt FACTOR 1.0
  RATE
    OPEN/CLOSE ../e58ed525-c537-4843-a3c3-fccbfbd238d4/model.evt_089_RATE.txt FACTOR 1.0
  DEPTH
    OPEN/CLOSE ../e58ed525-c537-4843-a3c3-fccbfbd238d4/model.evt_089_DEPTH.txt FACTOR 1.0
END PERIOD

BEGIN PERIOD 90
  SURFACE
    OPEN/CLOSE ../e58ed525-c537-4843-a3c3-fccbfbd238d4/model.evt_090_SURFACE.txt FACTOR 1.0
  RATE
    OPEN/CLOSE ../e58ed525-c537-4843-a3c3-fccbfbd238d4/model.evt_090_RATE.txt FACTOR 1.0
  DEPTH