{"SIM_UUID":"7d414a04-2697-40d2-a744-a7b795bd9692","SOLUTION_FILE_FULL":"D:\\Users\\User\\Documents\\GMS\\PhD\\Current\\BaseModel_models\\MODFLOW 6\\sim1L\\flow_output\\model.lst","SOLUTION_FILE_RELATIVE":"../../../BaseModel_models/MODFLOW 6/sim1L/flow_output/model.lst"}