BEGIN OPTIONS
  BUDGET FILEOUT ../8feff31f-af65-4690-8239-b34c35956117/flow.cbc
  HEAD FILEOUT ../8feff31f-af65-4690-8239-b34c35956117/flow.hds
END OPTIONS

BEGIN PERIOD 1
  PRINT BUDGET ALL
  PRINT HEAD ALL
  SAVE BUDGET ALL
  SAVE HEAD ALL
END PERIOD
