BEGIN OPTIONS
END OPTIONS

BEGIN TIMING
  TDIS6 ../8092af0a-5a07-4af3-8c7d-4ffed9f6349c/model.tdis
END TIMING

BEGIN MODELS
  GWF6 ../3f7ddae4-7e0b-4f6b-8adc-e1e21794e244/model.nam flow
END MODELS

BEGIN EXCHANGES
END EXCHANGES

BEGIN SOLUTIONGROUP 1
  MXITER 1
  IMS6 ../7aac1e52-3f74-4a79-85a7-23f894f89408/model.ims flow
END SOLUTIONGROUP
