BEGIN OPTIONS
  BUDGET FILEOUT ../7404f6ed-8150-4a75-8705-0e239adf81c1/flow.cbc
  HEAD FILEOUT ../7404f6ed-8150-4a75-8705-0e239adf81c1/flow.hds
END OPTIONS

BEGIN PERIOD 1
  PRINT BUDGET ALL
  PRINT HEAD ALL
  SAVE BUDGET ALL
  SAVE HEAD ALL
END PERIOD
