# File generated by Flopy version 3.3.6 on 07/12/2023 at 17:42:52.
BEGIN OPTIONS
  SAVE_FLOWS
END OPTIONS

BEGIN GRIDDATA
  iconvert
    CONSTANT  1
  ss
    CONSTANT  1.00000000E-04
  sy
    CONSTANT       0.01000000
END GRIDDATA

BEGIN PERIOD  1
  STEADY-STATE
END PERIOD  1

