# File generated by Flopy version 3.3.6 on 07/12/2023 at 17:42:52.
BEGIN GRIDDATA
  strt  LAYERED
    OPEN/CLOSE  'flow_input/flow.ic_STRT_1.txt'  FACTOR  1.0
    OPEN/CLOSE  'flow_input/flow.ic_STRT_2.txt'  FACTOR  1.0
END GRIDDATA

