# File generated by Flopy version 3.3.6 on 07/12/2023 at 17:42:52.
BEGIN OPTIONS
  BUDGET  FILEOUT  flow_output/flow.cbc
  HEAD  FILEOUT  flow_output/flow.hds
END OPTIONS

BEGIN PERIOD  1
  SAVE  budget  all
  SAVE  head  all
  PRINT  budget  all
  PRINT  head  all
END PERIOD  1

