# File generated by Flopy version 3.3.6 on 07/12/2023 at 17:42:52.
BEGIN OPTIONS
  AUXILIARY  cellgrp
  BOUNDNAMES
  PRINT_INPUT
  PRINT_FLOWS
  SAVE_FLOWS
END OPTIONS

BEGIN DIMENSIONS
  MAXBOUND  344
END DIMENSIONS

BEGIN PERIOD  1
    OPEN/CLOSE  'flow_input/flow.riv_1.txt'
END PERIOD  1

