# File generated by Flopy version 3.3.6 on 07/12/2023 at 17:42:52.
BEGIN OPTIONS
  SAVE_FLOWS
  REWET  WETFCT       0.10000000  IWETIT  1  IHDWET  0
  K33OVERK
END OPTIONS

BEGIN GRIDDATA
  icelltype  LAYERED
    CONSTANT  -1
    CONSTANT  -1
  k  LAYERED
    OPEN/CLOSE  'flow_input/flow.npf_K_1.txt'  FACTOR  1.0
    OPEN/CLOSE  'flow_input/flow.npf_K_2.txt'  FACTOR  1.0
  k33
    OPEN/CLOSE  'flow_input/flow.npf_K33_1.txt'  FACTOR  1.0
  wetdry
    CONSTANT       0.50000000
END GRIDDATA

