# File generated by Flopy version 3.3.6 on 07/12/2023 at 17:42:52.
BEGIN OPTIONS
  READASARRAYS
  PRINT_INPUT
  PRINT_FLOWS
  SAVE_FLOWS
END OPTIONS

BEGIN PERIOD  1
  surface
    CONSTANT      14.50000000
  rate
    CONSTANT       0.00172560
  depth
    CONSTANT       5.00000000
END PERIOD  1

