# File generated by Flopy version 3.3.6 on 07/12/2023 at 17:42:52.
BEGIN OPTIONS
  LENGTH_UNITS  meters
  XORIGIN       0.00000000
  YORIGIN       0.00000000
  ANGROT       0.00000000
END OPTIONS

BEGIN DIMENSIONS
  NLAY  2
  NROW  100
  NCOL  250
END DIMENSIONS

BEGIN GRIDDATA
  delr
    CONSTANT      20.00000000
  delc
    CONSTANT      20.00000000
  top
    CONSTANT      15.00000000
  botm  LAYERED
    CONSTANT       7.50000000
    CONSTANT       0.00000000
  idomain  LAYERED
    OPEN/CLOSE  'flow_input/flow.dis_IDOMAIN_1.txt'  FACTOR  1
    OPEN/CLOSE  'flow_input/flow.dis_IDOMAIN_2.txt'  FACTOR  1
END GRIDDATA

