BEGIN OPTIONS
END OPTIONS

BEGIN TIMING
  TDIS6 sim1t.tdis
END TIMING

BEGIN MODELS
  GWF6 flow.nam flow
END MODELS

BEGIN EXCHANGES
END EXCHANGES

BEGIN SOLUTIONGROUP 1
  MXITER 1
  IMS6 sim1t.ims flow
END SOLUTIONGROUP
