BEGIN OPTIONS
END OPTIONS

BEGIN TIMING
  TDIS6 ../7ae71873-fc85-4b57-8730-1037b41deb4a/model.tdis
END TIMING

BEGIN MODELS
  GWF6 ../16827513-871a-4b25-bf0b-84bc75b513a2/model.nam flow
END MODELS

BEGIN EXCHANGES
END EXCHANGES

BEGIN SOLUTIONGROUP 1
  MXITER 1
  IMS6 ../0c0756af-3340-43c4-8842-c7c8c6f32fcf/model.ims flow
END SOLUTIONGROUP
